MODEL 1
REMARK VINA RESULT:     -10.7      0.000      0.000
REMARK  6 active torsions:
REMARK  status: ('A' for Active; 'I' for Inactive)
REMARK    1  A    between atoms: C5_5  and  C7_7 
REMARK       I    between atoms: C9_9  and  N13_13 
REMARK    2  A    between atoms: C14_14  and  N13_13 
REMARK    3  A    between atoms: C16_16  and  N21_21 
REMARK       I    between atoms: C22_22  and  N21_21 
REMARK    4  A    between atoms: C22_22  and  C23_23 
REMARK    5  A    between atoms: C27_26  and  C46_30 
REMARK    6  A    between atoms: C46_30  and  N48_31 
ROOT
HETATM    1  C14 STI   202       9.452  92.694  63.249  1.00 42.05     0.057 A 
HETATM    2  C15 STI   202       9.839  93.738  62.351  1.00 40.05     0.060 A 
HETATM    3  C16 STI   202      10.643  94.871  62.813  1.00 38.18     0.037 A 
HETATM    4  C17 STI   202      11.034  94.908  64.179  1.00 38.14     0.030 A 
HETATM    5  C18 STI   202      10.651  93.863  65.096  1.00 41.64     0.011 A 
HETATM    6  C19 STI   202       9.860  92.747  64.657  1.00 40.08    -0.035 A 
HETATM    7  C20 STI   202       9.483  91.669  65.700  1.00 40.72     0.050 C 
ENDROOT
BRANCH   3   8
HETATM    8  N21 STI   202      11.067  95.963  61.971  1.00 36.88    -0.323 N 
HETATM    9  C22 STI   202      12.242  96.093  61.254  1.00 34.79     0.256 C 
HETATM   10  O29 STI   202      13.221  95.386  61.399  1.00 40.42    -0.267 OA
HETATM   11  H21 STI   202      10.420  96.734  61.894  1.00  0.00     0.169 HD
BRANCH   9  12
HETATM   12  C23 STI   202      12.354  97.178  60.235  1.00 39.43     0.032 A 
HETATM   13  C25 STI   202      11.370  98.258  60.175  1.00 41.52     0.017 A 
HETATM   14  C26 STI   202      11.490  99.282  59.169  1.00 42.92     0.010 A 
HETATM   15  C27 STI   202      12.593  99.230  58.224  1.00 41.50    -0.033 A 
HETATM   16  C28 STI   202      13.557  98.154  58.309  1.00 41.95     0.010 A 
HETATM   17  C29 STI   202      13.446  97.146  59.290  1.00 42.07     0.017 A 
BRANCH  15  18
HETATM   18  C46 STI   202      12.777 100.270  57.114  1.00 42.63     0.273 C 
BRANCH  18  19
HETATM   19  N48 STI   202      13.388  99.817  55.829  1.00 46.81    -0.064 N 
HETATM   20  C49 STI   202      14.750 100.462  55.597  1.00 44.56     0.263 C 
HETATM   21  C50 STI   202      15.390  99.973  54.261  1.00 46.99     0.262 C 
HETATM   22  N51 STI   202      14.445 100.278  53.109  1.00 45.71    -0.072 N 
HETATM   23  C52 STI   202      13.086  99.631  53.331  1.00 42.59     0.262 C 
HETATM   24  C54 STI   202      15.078  99.877  51.841  1.00 47.72     0.269 C 
HETATM   25  H51 STI   202      14.308 101.279  53.080  1.00  0.00     0.279 HD
HETATM   26  C53 STI   202      12.471 100.102  54.674  1.00 41.12     0.263 C 
HETATM   27  H48 STI   202      13.522  98.817  55.883  1.00  0.00     0.280 HD
ENDBRANCH  18  19
ENDBRANCH  15  18
ENDBRANCH   9  12
ENDBRANCH   3   8
BRANCH   1  28
HETATM   28  N13 STI   202       8.673  91.634  62.754  1.00 45.65    -0.188 N 
HETATM   29  C9  STI   202       7.394  91.825  62.224  1.00 48.27     0.727 A 
HETATM   30  N8  STI   202       6.727  90.731  61.762  1.00 42.11    -0.062 NA
HETATM   31  N10 STI   202       6.800  93.074  62.152  1.00 45.18    -0.075 NA
HETATM   32  C7  STI   202       5.461  90.821  61.218  1.00 48.61     0.089 A 
HETATM   33  C12 STI   202       4.817  92.104  61.128  1.00 45.68     0.053 A 
HETATM   34  C11 STI   202       5.532  93.229  61.617  1.00 47.75     0.139 A 
HETATM   35  H13 STI   202       9.053  90.699  62.782  1.00  0.00     0.184 HD
BRANCH  32  36
HETATM   36  C5  STI   202       4.831  89.545  60.739  1.00 49.43     0.011 A 
HETATM   37  C4  STI   202       5.172  89.037  59.423  1.00 47.99     0.130 A 
HETATM   38  N3  STI   202       4.596  87.859  58.960  1.00 51.14    -0.272 NA
HETATM   39  C2  STI   202       3.681  87.117  59.714  1.00 52.94     0.116 A 
HETATM   40  C1  STI   202       3.296  87.560  61.025  1.00 54.02     0.020 A 
HETATM   41  C6  STI   202       3.877  88.781  61.536  1.00 52.26     0.017 A 
ENDBRANCH  32  36
ENDBRANCH   1  28
TORSDOF 6
ENDMDL
MODEL 2
REMARK VINA RESULT:     -10.2      7.554     17.091
REMARK  6 active torsions:
REMARK  status: ('A' for Active; 'I' for Inactive)
REMARK    1  A    between atoms: C5_5  and  C7_7 
REMARK       I    between atoms: C9_9  and  N13_13 
REMARK    2  A    between atoms: C14_14  and  N13_13 
REMARK    3  A    between atoms: C16_16  and  N21_21 
REMARK       I    between atoms: C22_22  and  N21_21 
REMARK    4  A    between atoms: C22_22  and  C23_23 
REMARK    5  A    between atoms: C27_26  and  C46_30 
REMARK    6  A    between atoms: C46_30  and  N48_31 
ROOT
HETATM    1  C14 STI   202      16.174 101.407  45.677  1.00 42.05     0.057 A 
HETATM    2  C15 STI   202      15.644 101.241  46.995  1.00 40.05     0.060 A 
HETATM    3  C16 STI   202      16.463 101.511  48.178  1.00 38.18     0.037 A 
HETATM    4  C17 STI   202      17.802 101.947  47.985  1.00 38.14     0.030 A 
HETATM    5  C18 STI   202      18.350 102.119  46.662  1.00 41.64     0.011 A 
HETATM    6  C19 STI   202      17.558 101.855  45.493  1.00 40.08    -0.035 A 
HETATM    7  C20 STI   202      18.218 102.056  44.109  1.00 40.72     0.050 C 
ENDROOT
BRANCH   3   8
HETATM    8  N21 STI   202      16.002 101.361  49.537  1.00 36.88    -0.323 N 
HETATM    9  C22 STI   202      15.940 100.214  50.304  1.00 34.79     0.256 C 
HETATM   10  O29 STI   202      16.063  99.085  49.871  1.00 40.42    -0.267 OA
HETATM   11  H21 STI   202      15.683 102.207  49.987  1.00  0.00     0.169 HD
BRANCH   9  12
HETATM   12  C23 STI   202      15.688 100.334  51.771  1.00 39.43     0.032 A 
HETATM   13  C25 STI   202      16.542 101.172  52.613  1.00 41.52     0.017 A 
HETATM   14  C26 STI   202      16.291 101.256  54.029  1.00 42.92     0.010 A 
HETATM   15  C27 STI   202      15.187 100.506  54.606  1.00 41.50    -0.033 A 
HETATM   16  C28 STI   202      14.353  99.690  53.749  1.00 41.95     0.010 A 
HETATM   17  C29 STI   202      14.594  99.601  52.361  1.00 42.07     0.017 A 
BRANCH  15  18
HETATM   18  C46 STI   202      14.869 100.528  56.104  1.00 42.63     0.273 C 
BRANCH  18  19
HETATM   19  N48 STI   202      13.640  99.816  56.566  1.00 46.81    -0.064 N 
HETATM   20  C49 STI   202      12.417 100.724  56.526  1.00 44.56     0.263 C 
HETATM   21  C50 STI   202      11.134  99.970  56.995  1.00 46.99     0.262 C 
HETATM   22  N51 STI   202      11.356  99.424  58.398  1.00 45.71    -0.072 N 
HETATM   23  C52 STI   202      12.571  98.511  58.443  1.00 42.59     0.262 C 
HETATM   24  C54 STI   202      10.122  98.771  58.866  1.00 47.72     0.269 C 
HETATM   25  H51 STI   202      11.538 100.209  59.008  1.00  0.00     0.279 HD
HETATM   26  C53 STI   202      13.835  99.261  57.948  1.00 41.12     0.263 C 
HETATM   27  H48 STI   202      13.474  99.042  55.939  1.00  0.00     0.280 HD
ENDBRANCH  18  19
ENDBRANCH  15  18
ENDBRANCH   9  12
ENDBRANCH   3   8
BRANCH   1  28
HETATM   28  N13 STI   202      15.346 101.126  44.578  1.00 45.65    -0.188 N 
HETATM   29  C9  STI   202      15.280  99.859  43.991  1.00 48.27     0.727 A 
HETATM   30  N8  STI   202      14.438  99.690  42.934  1.00 42.11    -0.062 NA
HETATM   31  N10 STI   202      16.032  98.789  44.450  1.00 45.18    -0.075 NA
HETATM   32  C7  STI   202      14.303  98.475  42.292  1.00 48.61     0.089 A 
HETATM   33  C12 STI   202      15.069  97.344  42.745  1.00 45.68     0.053 A 
HETATM   34  C11 STI   202      15.940  97.546  43.847  1.00 47.75     0.139 A 
HETATM   35  H13 STI   202      14.776 101.868  44.197  1.00  0.00     0.184 HD
BRANCH  32  36
HETATM   36  C5  STI   202      13.339  98.412  41.142  1.00 49.43     0.011 A 
HETATM   37  C4  STI   202      12.114  99.190  41.203  1.00 47.99     0.130 A 
HETATM   38  N3  STI   202      11.207  99.144  40.150  1.00 51.14    -0.272 NA
HETATM   39  C2  STI   202      11.416  98.366  39.006  1.00 52.94     0.116 A 
HETATM   40  C1  STI   202      12.604  97.570  38.878  1.00 54.02     0.020 A 
HETATM   41  C6  STI   202      13.568  97.597  39.955  1.00 52.26     0.017 A 
ENDBRANCH  32  36
ENDBRANCH   1  28
TORSDOF 6
ENDMDL
MODEL 3
REMARK VINA RESULT:     -10.2      1.787      2.310
REMARK  6 active torsions:
REMARK  status: ('A' for Active; 'I' for Inactive)
REMARK    1  A    between atoms: C5_5  and  C7_7 
REMARK       I    between atoms: C9_9  and  N13_13 
REMARK    2  A    between atoms: C14_14  and  N13_13 
REMARK    3  A    between atoms: C16_16  and  N21_21 
REMARK       I    between atoms: C22_22  and  N21_21 
REMARK    4  A    between atoms: C22_22  and  C23_23 
REMARK    5  A    between atoms: C27_26  and  C46_30 
REMARK    6  A    between atoms: C46_30  and  N48_31 
ROOT
HETATM    1  C14 STI   202       9.879  92.908  63.531  1.00 42.05     0.057 A 
HETATM    2  C15 STI   202      10.049  94.006  62.630  1.00 40.05     0.060 A 
HETATM    3  C16 STI   202      11.137  94.968  62.808  1.00 38.18     0.037 A 
HETATM    4  C17 STI   202      12.029  94.783  63.901  1.00 38.14     0.030 A 
HETATM    5  C18 STI   202      11.870  93.681  64.817  1.00 41.64     0.011 A 
HETATM    6  C19 STI   202      10.804  92.731  64.655  1.00 40.08    -0.035 A 
HETATM    7  C20 STI   202      10.696  91.579  65.683  1.00 40.72     0.050 C 
ENDROOT
BRANCH   3   8
HETATM    8  N21 STI   202      11.369  96.102  61.947  1.00 36.88    -0.323 N 
HETATM    9  C22 STI   202      12.383  96.292  61.027  1.00 34.79     0.256 C 
HETATM   10  O29 STI   202      13.387  95.611  60.955  1.00 40.42    -0.267 OA
HETATM   11  H21 STI   202      10.702  96.856  62.025  1.00  0.00     0.169 HD
BRANCH   9  12
HETATM   12  C23 STI   202      12.275  97.416  60.050  1.00 39.43     0.032 A 
HETATM   13  C25 STI   202      13.362  97.704  59.114  1.00 41.52     0.017 A 
HETATM   14  C26 STI   202      13.241  98.806  58.194  1.00 42.92     0.010 A 
HETATM   15  C27 STI   202      12.037  99.620  58.206  1.00 41.50    -0.033 A 
HETATM   16  C28 STI   202      10.974  99.310  59.139  1.00 41.95     0.010 A 
HETATM   17  C29 STI   202      11.085  98.233  60.044  1.00 42.07     0.017 A 
BRANCH  15  18
HETATM   18  C46 STI   202      11.843 100.821  57.274  1.00 42.63     0.273 C 
BRANCH  18  19
HETATM   19  N48 STI   202      12.452 100.751  55.913  1.00 46.81    -0.064 N 
HETATM   20  C49 STI   202      11.815  99.652  55.069  1.00 44.56     0.263 C 
HETATM   21  C50 STI   202      12.445  99.595  53.642  1.00 46.99     0.262 C 
HETATM   22  N51 STI   202      13.946  99.380  53.764  1.00 45.71    -0.072 N 
HETATM   23  C52 STI   202      14.589 100.477  54.599  1.00 42.59     0.262 C 
HETATM   24  C54 STI   202      14.530  99.259  52.417  1.00 47.72     0.269 C 
HETATM   25  H51 STI   202      14.094  98.503  54.242  1.00  0.00     0.279 HD
HETATM   26  C53 STI   202      13.937 100.545  56.004  1.00 41.12     0.263 C 
HETATM   27  H48 STI   202      12.287 101.634  55.452  1.00  0.00     0.280 HD
ENDBRANCH  18  19
ENDBRANCH  15  18
ENDBRANCH   9  12
ENDBRANCH   3   8
BRANCH   1  28
HETATM   28  N13 STI   202       8.812  92.020  63.317  1.00 45.65    -0.188 N 
HETATM   29  C9  STI   202       7.584  92.149  63.972  1.00 48.27     0.727 A 
HETATM   30  N8  STI   202       6.612  91.240  63.686  1.00 42.11    -0.062 NA
HETATM   31  N10 STI   202       7.332  93.163  64.882  1.00 45.18    -0.075 NA
HETATM   32  C7  STI   202       5.365  91.289  64.279  1.00 48.61     0.089 A 
HETATM   33  C12 STI   202       5.072  92.329  65.228  1.00 45.68     0.053 A 
HETATM   34  C11 STI   202       6.102  93.265  65.510  1.00 47.75     0.139 A 
HETATM   35  H13 STI   202       8.938  91.258  62.666  1.00  0.00     0.184 HD
BRANCH  32  36
HETATM   36  C5  STI   202       4.376  90.232  63.880  1.00 49.43     0.011 A 
HETATM   37  C4  STI   202       4.827  89.107  63.080  1.00 47.99     0.130 A 
HETATM   38  N3  STI   202       3.925  88.120  62.696  1.00 51.14    -0.272 NA
HETATM   39  C2  STI   202       2.572  88.154  63.048  1.00 52.94     0.116 A 
HETATM   40  C1  STI   202       2.056  89.236  63.838  1.00 54.02     0.020 A 
HETATM   41  C6  STI   202       2.966  90.279  64.253  1.00 52.26     0.017 A 
ENDBRANCH  32  36
ENDBRANCH   1  28
TORSDOF 6
ENDMDL
MODEL 4
REMARK VINA RESULT:     -10.2      7.555     17.613
REMARK  6 active torsions:
REMARK  status: ('A' for Active; 'I' for Inactive)
REMARK    1  A    between atoms: C5_5  and  C7_7 
REMARK       I    between atoms: C9_9  and  N13_13 
REMARK    2  A    between atoms: C14_14  and  N13_13 
REMARK    3  A    between atoms: C16_16  and  N21_21 
REMARK       I    between atoms: C22_22  and  N21_21 
REMARK    4  A    between atoms: C22_22  and  C23_23 
REMARK    5  A    between atoms: C27_26  and  C46_30 
REMARK    6  A    between atoms: C46_30  and  N48_31 
ROOT
HETATM    1  C14 STI   202      16.175 101.576  45.641  1.00 42.05     0.057 A 
HETATM    2  C15 STI   202      15.633 101.408  46.954  1.00 40.05     0.060 A 
HETATM    3  C16 STI   202      16.468 101.583  48.144  1.00 38.18     0.037 A 
HETATM    4  C17 STI   202      17.835 101.930  47.963  1.00 38.14     0.030 A 
HETATM    5  C18 STI   202      18.395 102.103  46.645  1.00 41.64     0.011 A 
HETATM    6  C19 STI   202      17.588 101.932  45.470  1.00 40.08    -0.035 A 
HETATM    7  C20 STI   202      18.262 102.128  44.091  1.00 40.72     0.050 C 
ENDROOT
BRANCH   3   8
HETATM    8  N21 STI   202      15.996 101.425  49.498  1.00 36.88    -0.323 N 
HETATM    9  C22 STI   202      15.904 100.268  50.249  1.00 34.79     0.256 C 
HETATM   10  O29 STI   202      16.005  99.143  49.799  1.00 40.42    -0.267 OA
HETATM   11  H21 STI   202      15.694 102.270  49.958  1.00  0.00     0.169 HD
BRANCH   9  12
HETATM   12  C23 STI   202      15.648 100.373  51.716  1.00 39.43     0.032 A 
HETATM   13  C25 STI   202      16.457 101.253  52.559  1.00 41.52     0.017 A 
HETATM   14  C26 STI   202      16.202 101.321  53.975  1.00 42.92     0.010 A 
HETATM   15  C27 STI   202      15.139 100.515  54.550  1.00 41.50    -0.033 A 
HETATM   16  C28 STI   202      14.348  99.658  53.693  1.00 41.95     0.010 A 
HETATM   17  C29 STI   202      14.592  99.584  52.305  1.00 42.07     0.017 A 
BRANCH  15  18
HETATM   18  C46 STI   202      14.821 100.518  56.049  1.00 42.63     0.273 C 
BRANCH  18  19
HETATM   19  N48 STI   202      13.592  99.800  56.502  1.00 46.81    -0.064 N 
HETATM   20  C49 STI   202      12.362 100.697  56.437  1.00 44.56     0.263 C 
HETATM   21  C50 STI   202      11.079  99.936  56.897  1.00 46.99     0.262 C 
HETATM   22  N51 STI   202      11.287  99.406  58.308  1.00 45.71    -0.072 N 
HETATM   23  C52 STI   202      12.510  98.505  58.378  1.00 42.59     0.262 C 
HETATM   24  C54 STI   202      10.053  98.746  58.766  1.00 47.72     0.269 C 
HETATM   25  H51 STI   202      11.454 100.198  58.912  1.00  0.00     0.279 HD
HETATM   26  C53 STI   202      13.773  99.261  57.893  1.00 41.12     0.263 C 
HETATM   27  H48 STI   202      13.442  99.018  55.881  1.00  0.00     0.280 HD
ENDBRANCH  18  19
ENDBRANCH  15  18
ENDBRANCH   9  12
ENDBRANCH   3   8
BRANCH   1  28
HETATM   28  N13 STI   202      15.331 101.388  44.534  1.00 45.65    -0.188 N 
HETATM   29  C9  STI   202      14.405 102.352  44.123  1.00 48.27     0.727 A 
HETATM   30  N8  STI   202      13.641 102.074  43.031  1.00 42.11    -0.062 NA
HETATM   31  N10 STI   202      14.252 103.561  44.781  1.00 45.18    -0.075 NA
HETATM   32  C7  STI   202      12.703 102.965  42.547  1.00 48.61     0.089 A 
HETATM   33  C12 STI   202      12.520 104.230  43.208  1.00 45.68     0.053 A 
HETATM   34  C11 STI   202      13.328 104.495  44.344  1.00 47.75     0.139 A 
HETATM   35  H13 STI   202      15.395 100.524  44.016  1.00  0.00     0.184 HD
BRANCH  32  36
HETATM   36  C5  STI   202      11.924 102.546  41.333  1.00 49.43     0.011 A 
HETATM   37  C4  STI   202      11.995 101.166  40.889  1.00 47.99     0.130 A 
HETATM   38  N3  STI   202      11.284 100.759  39.765  1.00 51.14    -0.272 NA
HETATM   39  C2  STI   202      10.484 101.631  39.019  1.00 52.94     0.116 A 
HETATM   40  C1  STI   202      10.368 103.011  39.400  1.00 54.02     0.020 A 
HETATM   41  C6  STI   202      11.094 103.466  40.563  1.00 52.26     0.017 A 
ENDBRANCH  32  36
ENDBRANCH   1  28
TORSDOF 6
ENDMDL
MODEL 5
REMARK VINA RESULT:      -9.8      7.814     18.443
REMARK  6 active torsions:
REMARK  status: ('A' for Active; 'I' for Inactive)
REMARK    1  A    between atoms: C5_5  and  C7_7 
REMARK       I    between atoms: C9_9  and  N13_13 
REMARK    2  A    between atoms: C14_14  and  N13_13 
REMARK    3  A    between atoms: C16_16  and  N21_21 
REMARK       I    between atoms: C22_22  and  N21_21 
REMARK    4  A    between atoms: C22_22  and  C23_23 
REMARK    5  A    between atoms: C27_26  and  C46_30 
REMARK    6  A    between atoms: C46_30  and  N48_31 
ROOT
HETATM    1  C14 STI   202      15.786 102.352  45.689  1.00 42.05     0.057 A 
HETATM    2  C15 STI   202      15.313 102.181  47.028  1.00 40.05     0.060 A 
HETATM    3  C16 STI   202      16.214 101.751  48.099  1.00 38.18     0.037 A 
HETATM    4  C17 STI   202      17.578 101.509  47.776  1.00 38.14     0.030 A 
HETATM    5  C18 STI   202      18.069 101.678  46.430  1.00 41.64     0.011 A 
HETATM    6  C19 STI   202      17.195 102.096  45.370  1.00 40.08    -0.035 A 
HETATM    7  C20 STI   202      17.795 102.248  43.952  1.00 40.72     0.050 C 
ENDROOT
BRANCH   3   8
HETATM    8  N21 STI   202      15.810 101.552  49.469  1.00 36.88    -0.323 N 
HETATM    9  C22 STI   202      15.806 100.382  50.205  1.00 34.79     0.256 C 
HETATM   10  O29 STI   202      15.939  99.269  49.734  1.00 40.42    -0.267 OA
HETATM   11  H21 STI   202      15.489 102.376  49.956  1.00  0.00     0.169 HD
BRANCH   9  12
HETATM   12  C23 STI   202      15.610 100.455  51.683  1.00 39.43     0.032 A 
HETATM   13  C25 STI   202      16.497 101.262  52.520  1.00 41.52     0.017 A 
HETATM   14  C26 STI   202      16.299 101.300  53.946  1.00 42.92     0.010 A 
HETATM   15  C27 STI   202      15.214 100.535  54.538  1.00 41.50    -0.033 A 
HETATM   16  C28 STI   202      14.347  99.749  53.687  1.00 41.95     0.010 A 
HETATM   17  C29 STI   202      14.535  99.705  52.289  1.00 42.07     0.017 A 
BRANCH  15  18
HETATM   18  C46 STI   202      14.952 100.507  56.048  1.00 42.63     0.273 C 
BRANCH  18  19
HETATM   19  N48 STI   202      13.731  99.795  56.530  1.00 46.81    -0.064 N 
HETATM   20  C49 STI   202      12.516 100.715  56.548  1.00 44.56     0.263 C 
HETATM   21  C50 STI   202      11.241  99.960  57.039  1.00 46.99     0.262 C 
HETATM   22  N51 STI   202      11.500  99.380  58.421  1.00 45.71    -0.072 N 
HETATM   23  C52 STI   202      12.708  98.457  58.408  1.00 42.59     0.262 C 
HETATM   24  C54 STI   202      10.275  98.726  58.911  1.00 47.72     0.269 C 
HETATM   25  H51 STI   202      11.707 100.149  59.043  1.00  0.00     0.279 HD
HETATM   26  C53 STI   202      13.963  99.207  57.893  1.00 41.12     0.263 C 
HETATM   27  H48 STI   202      13.540  99.037  55.891  1.00  0.00     0.280 HD
ENDBRANCH  18  19
ENDBRANCH  15  18
ENDBRANCH   9  12
ENDBRANCH   3   8
BRANCH   1  28
HETATM   28  N13 STI   202      14.876 102.758  44.699  1.00 45.65    -0.188 N 
HETATM   29  C9  STI   202      14.779 104.084  44.267  1.00 48.27     0.727 A 
HETATM   30  N8  STI   202      13.869 104.370  43.295  1.00 42.11    -0.062 NA
HETATM   31  N10 STI   202      15.571 105.094  44.788  1.00 45.18    -0.075 NA
HETATM   32  C7  STI   202      13.704 105.650  42.801  1.00 48.61     0.089 A 
HETATM   33  C12 STI   202      14.512 106.721  43.320  1.00 45.68     0.053 A 
HETATM   34  C11 STI   202      15.452 106.396  44.333  1.00 47.75     0.139 A 
HETATM   35  H13 STI   202      14.269 102.066  44.284  1.00  0.00     0.184 HD
BRANCH  32  36
HETATM   36  C5  STI   202      12.672 105.840  41.726  1.00 49.43     0.011 A 
HETATM   37  C4  STI   202      11.477 106.609  42.021  1.00 47.99     0.130 A 
HETATM   38  N3  STI   202      10.508 106.793  41.041  1.00 51.14    -0.272 NA
HETATM   39  C2  STI   202      10.625 106.262  39.752  1.00 52.94     0.116 A 
HETATM   40  C1  STI   202      11.781 105.490  39.389  1.00 54.02     0.020 A 
HETATM   41  C6  STI   202      12.807 105.280  40.385  1.00 52.26     0.017 A 
ENDBRANCH  32  36
ENDBRANCH   1  28
TORSDOF 6
ENDMDL
MODEL 6
REMARK VINA RESULT:      -8.5      7.400     13.789
REMARK  6 active torsions:
REMARK  status: ('A' for Active; 'I' for Inactive)
REMARK    1  A    between atoms: C5_5  and  C7_7 
REMARK       I    between atoms: C9_9  and  N13_13 
REMARK    2  A    between atoms: C14_14  and  N13_13 
REMARK    3  A    between atoms: C16_16  and  N21_21 
REMARK       I    between atoms: C22_22  and  N21_21 
REMARK    4  A    between atoms: C22_22  and  C23_23 
REMARK    5  A    between atoms: C27_26  and  C46_30 
REMARK    6  A    between atoms: C46_30  and  N48_31 
ROOT
HETATM    1  C14 STI   202       8.273  90.961  63.734  1.00 42.05     0.057 A 
HETATM    2  C15 STI   202       8.626  90.510  65.044  1.00 40.05     0.060 A 
HETATM    3  C16 STI   202       8.593  91.421  66.190  1.00 38.18     0.037 A 
HETATM    4  C17 STI   202       8.196  92.768  65.970  1.00 38.14     0.030 A 
HETATM    5  C18 STI   202       7.837  93.236  64.654  1.00 41.64     0.011 A 
HETATM    6  C19 STI   202       7.868  92.355  63.520  1.00 40.08    -0.035 A 
HETATM    7  C20 STI   202       7.476  92.933  62.140  1.00 40.72     0.050 C 
ENDROOT
BRANCH   3   8
HETATM    8  N21 STI   202       8.940  91.042  67.539  1.00 36.88    -0.323 N 
HETATM    9  C22 STI   202       8.123  90.522  68.525  1.00 34.79     0.256 C 
HETATM   10  O29 STI   202       6.908  90.504  68.478  1.00 40.42    -0.267 OA
HETATM   11  H21 STI   202       9.907  91.175  67.796  1.00  0.00     0.169 HD
BRANCH   9  12
HETATM   12  C23 STI   202       8.746  89.947  69.754  1.00 39.43     0.032 A 
HETATM   13  C25 STI   202       8.583  90.598  71.054  1.00 41.52     0.017 A 
HETATM   14  C26 STI   202       9.210  90.034  72.221  1.00 42.92     0.010 A 
HETATM   15  C27 STI   202       9.997  88.819  72.094  1.00 41.50    -0.033 A 
HETATM   16  C28 STI   202      10.137  88.191  70.797  1.00 41.95     0.010 A 
HETATM   17  C29 STI   202       9.528  88.738  69.648  1.00 42.07     0.017 A 
BRANCH  15  18
HETATM   18  C46 STI   202      10.711  88.170  73.284  1.00 42.63     0.273 C 
BRANCH  18  19
HETATM   19  N48 STI   202      10.302  86.788  73.673  1.00 46.81    -0.064 N 
HETATM   20  C49 STI   202       8.786  86.630  73.671  1.00 44.56     0.263 C 
HETATM   21  C50 STI   202       8.365  85.180  74.064  1.00 46.99     0.262 C 
HETATM   22  N51 STI   202       8.941  84.842  75.431  1.00 45.71    -0.072 N 
HETATM   23  C52 STI   202      10.454  84.991  75.438  1.00 42.59     0.262 C 
HETATM   24  C54 STI   202       8.488  83.499  75.830  1.00 47.72     0.269 C 
HETATM   25  H51 STI   202       8.564  85.503  76.095  1.00  0.00     0.279 HD
HETATM   26  C53 STI   202      10.863  86.426  75.020  1.00 41.12     0.263 C 
HETATM   27  H48 STI   202      10.684  86.147  72.994  1.00  0.00     0.280 HD
ENDBRANCH  18  19
ENDBRANCH  15  18
ENDBRANCH   9  12
ENDBRANCH   3   8
BRANCH   1  28
HETATM   28  N13 STI   202       8.330  90.047  62.668  1.00 45.65    -0.188 N 
HETATM   29  C9  STI   202       7.261  89.209  62.339  1.00 48.27     0.727 A 
HETATM   30  N8  STI   202       7.416  88.366  61.281  1.00 42.11    -0.062 NA
HETATM   31  N10 STI   202       6.068  89.217  63.044  1.00 45.18    -0.075 NA
HETATM   32  C7  STI   202       6.415  87.504  60.878  1.00 48.61     0.089 A 
HETATM   33  C12 STI   202       5.164  87.489  61.589  1.00 45.68     0.053 A 
HETATM   34  C11 STI   202       5.027  88.376  62.688  1.00 47.75     0.139 A 
HETATM   35  H13 STI   202       9.176  89.994  62.119  1.00  0.00     0.184 HD
BRANCH  32  36
HETATM   36  C5  STI   202       6.704  86.626  59.695  1.00 49.43     0.011 A 
HETATM   37  C4  STI   202       6.649  87.196  58.361  1.00 47.99     0.130 A 
HETATM   38  N3  STI   202       6.910  86.399  57.252  1.00 51.14    -0.272 NA
HETATM   39  C2  STI   202       7.230  85.041  57.355  1.00 52.94     0.116 A 
HETATM   40  C1  STI   202       7.301  84.410  58.643  1.00 54.02     0.020 A 
HETATM   41  C6  STI   202       7.035  85.211  59.816  1.00 52.26     0.017 A 
ENDBRANCH  32  36
ENDBRANCH   1  28
TORSDOF 6
ENDMDL
MODEL 7
REMARK VINA RESULT:      -8.4      7.771     15.638
REMARK  6 active torsions:
REMARK  status: ('A' for Active; 'I' for Inactive)
REMARK    1  A    between atoms: C5_5  and  C7_7 
REMARK       I    between atoms: C9_9  and  N13_13 
REMARK    2  A    between atoms: C14_14  and  N13_13 
REMARK    3  A    between atoms: C16_16  and  N21_21 
REMARK       I    between atoms: C22_22  and  N21_21 
REMARK    4  A    between atoms: C22_22  and  C23_23 
REMARK    5  A    between atoms: C27_26  and  C46_30 
REMARK    6  A    between atoms: C46_30  and  N48_31 
ROOT
HETATM    1  C14 STI   202       8.228  91.454  66.799  1.00 42.05     0.057 A 
HETATM    2  C15 STI   202       8.589  90.318  67.589  1.00 40.05     0.060 A 
HETATM    3  C16 STI   202       7.566  89.449  68.175  1.00 38.18     0.037 A 
HETATM    4  C17 STI   202       6.200  89.760  67.935  1.00 38.14     0.030 A 
HETATM    5  C18 STI   202       5.821  90.902  67.140  1.00 41.64     0.011 A 
HETATM    6  C19 STI   202       6.814  91.765  66.562  1.00 40.08    -0.035 A 
HETATM    7  C20 STI   202       6.329  92.974  65.727  1.00 40.72     0.050 C 
ENDROOT
BRANCH   3   8
HETATM    8  N21 STI   202       7.851  88.291  68.986  1.00 36.88    -0.323 N 
HETATM    9  C22 STI   202       8.027  86.980  68.586  1.00 34.79     0.256 C 
HETATM   10  O29 STI   202       7.747  86.551  67.483  1.00 40.42    -0.267 OA
HETATM   11  H21 STI   202       7.934  88.460  69.978  1.00  0.00     0.169 HD
BRANCH   9  12
HETATM   12  C23 STI   202       8.584  85.993  69.557  1.00 39.43     0.032 A 
HETATM   13  C25 STI   202       7.830  84.795  69.926  1.00 41.52     0.017 A 
HETATM   14  C26 STI   202       8.382  83.868  70.881  1.00 42.92     0.010 A 
HETATM   15  C27 STI   202       9.685  84.133  71.465  1.00 41.50    -0.033 A 
HETATM   16  C28 STI   202      10.413  85.323  71.078  1.00 41.95     0.010 A 
HETATM   17  C29 STI   202       9.880  86.237  70.145  1.00 42.07     0.017 A 
BRANCH  15  18
HETATM   18  C46 STI   202      10.329  83.206  72.502  1.00 42.63     0.273 C 
BRANCH  18  19
HETATM   19  N48 STI   202      11.663  82.618  72.178  1.00 46.81    -0.064 N 
HETATM   20  C49 STI   202      11.566  81.122  71.904  1.00 44.56     0.263 C 
HETATM   21  C50 STI   202      12.960  80.518  71.551  1.00 46.99     0.262 C 
HETATM   22  N51 STI   202      13.931  80.796  72.689  1.00 45.71    -0.072 N 
HETATM   23  C52 STI   202      14.038  82.288  72.963  1.00 42.59     0.262 C 
HETATM   24  C54 STI   202      15.228  80.168  72.385  1.00 47.72     0.269 C 
HETATM   25  H51 STI   202      13.564  80.356  73.521  1.00  0.00     0.279 HD
HETATM   26  C53 STI   202      12.644  82.884  73.285  1.00 41.12     0.263 C 
HETATM   27  H48 STI   202      12.007  83.067  71.342  1.00  0.00     0.280 HD
ENDBRANCH  18  19
ENDBRANCH  15  18
ENDBRANCH   9  12
ENDBRANCH   3   8
BRANCH   1  28
HETATM   28  N13 STI   202       9.250  92.259  66.269  1.00 45.65    -0.188 N 
HETATM   29  C9  STI   202      10.247  91.751  65.431  1.00 48.27     0.727 A 
HETATM   30  N8  STI   202      11.187  92.618  64.963  1.00 42.11    -0.062 NA
HETATM   31  N10 STI   202      10.301  90.416  65.066  1.00 45.18    -0.075 NA
HETATM   32  C7  STI   202      12.208  92.211  64.126  1.00 48.61     0.089 A 
HETATM   33  C12 STI   202      12.291  90.831  63.729  1.00 45.68     0.053 A 
HETATM   34  C11 STI   202      11.300  89.947  64.230  1.00 47.75     0.139 A 
HETATM   35  H13 STI   202       9.265  93.241  66.502  1.00  0.00     0.184 HD
BRANCH  32  36
HETATM   36  C5  STI   202      13.181  93.261  63.673  1.00 49.43     0.011 A 
HETATM   37  C4  STI   202      14.404  92.852  63.007  1.00 47.99     0.130 A 
HETATM   38  N3  STI   202      15.320  93.809  62.583  1.00 51.14    -0.272 NA
HETATM   39  C2  STI   202      15.121  95.181  62.770  1.00 52.94     0.116 A 
HETATM   40  C1  STI   202      13.934  95.658  63.422  1.00 54.02     0.020 A 
HETATM   41  C6  STI   202      12.962  94.689  63.874  1.00 52.26     0.017 A 
ENDBRANCH  32  36
ENDBRANCH   1  28
TORSDOF 6
ENDMDL
