MODEL 1
REMARK VINA RESULT:     -13.9      0.000      0.000
REMARK  6 active torsions:
REMARK  status: ('A' for Active; 'I' for Inactive)
REMARK    1  A    between atoms: C5_5  and  C7_7 
REMARK       I    between atoms: C9_9  and  N13_13 
REMARK    2  A    between atoms: C14_14  and  N13_13 
REMARK    3  A    between atoms: C16_16  and  N21_21 
REMARK       I    between atoms: C22_22  and  N21_21 
REMARK    4  A    between atoms: C22_22  and  C23_23 
REMARK    5  A    between atoms: C27_26  and  C46_30 
REMARK    6  A    between atoms: C46_30  and  N48_31 
ROOT
HETATM    1  C14 STI   202      12.319 100.027  58.153  1.00 42.05     0.057 A 
HETATM    2  C15 STI   202      12.444  98.847  58.952  1.00 40.05     0.060 A 
HETATM    3  C16 STI   202      11.472  98.540  60.003  1.00 38.18     0.037 A 
HETATM    4  C17 STI   202      10.393  99.443  60.209  1.00 38.14     0.030 A 
HETATM    5  C18 STI   202      10.254 100.636  59.410  1.00 41.64     0.011 A 
HETATM    6  C19 STI   202      11.202 100.952  58.378  1.00 40.08    -0.035 A 
HETATM    7  C20 STI   202      10.989 102.253  57.569  1.00 40.72     0.050 C 
ENDROOT
BRANCH   3   8
HETATM    8  N21 STI   202      11.534  97.375  60.852  1.00 36.88    -0.323 N 
HETATM    9  C22 STI   202      12.500  96.388  60.890  1.00 34.79     0.256 C 
HETATM   10  O29 STI   202      13.358  96.227  60.043  1.00 40.42    -0.267 OA
HETATM   11  H21 STI   202      10.772  97.267  61.504  1.00  0.00     0.169 HD
BRANCH   9  12
HETATM   12  C23 STI   202      12.508  95.424  62.031  1.00 39.43     0.032 A 
HETATM   13  C25 STI   202      13.720  94.682  62.378  1.00 41.52     0.017 A 
HETATM   14  C26 STI   202      13.696  93.744  63.470  1.00 42.92     0.010 A 
HETATM   15  C27 STI   202      12.466  93.547  64.219  1.00 41.50    -0.033 A 
HETATM   16  C28 STI   202      11.283  94.300  63.858  1.00 41.95     0.010 A 
HETATM   17  C29 STI   202      11.297  95.219  62.789  1.00 42.07     0.017 A 
BRANCH  15  18
HETATM   18  C46 STI   202      12.356  92.553  65.380  1.00 42.63     0.273 C 
BRANCH  18  19
HETATM   19  N48 STI   202      11.154  91.668  65.428  1.00 46.81    -0.064 N 
HETATM   20  C49 STI   202      11.131  90.822  66.695  1.00 44.56     0.263 C 
HETATM   21  C50 STI   202       9.865  89.910  66.746  1.00 46.99     0.262 C 
HETATM   22  N51 STI   202       9.830  89.028  65.507  1.00 45.71    -0.072 N 
HETATM   23  C52 STI   202       9.847  89.867  64.239  1.00 42.59     0.262 C 
HETATM   24  C54 STI   202       8.672  88.122  65.588  1.00 47.72     0.269 C 
HETATM   25  H51 STI   202      10.666  88.460  65.510  1.00  0.00     0.279 HD
HETATM   26  C53 STI   202      11.093  90.789  64.211  1.00 41.12     0.263 C 
HETATM   27  H48 STI   202      10.334  92.256  65.430  1.00  0.00     0.280 HD
ENDBRANCH  18  19
ENDBRANCH  15  18
ENDBRANCH   9  12
ENDBRANCH   3   8
BRANCH   1  28
HETATM   28  N13 STI   202      13.284 100.277  57.164  1.00 45.65    -0.188 N 
HETATM   29  C9  STI   202      13.050 100.037  55.807  1.00 48.27     0.727 A 
HETATM   30  N8  STI   202      14.051 100.323  54.929  1.00 42.11    -0.062 NA
HETATM   31  N10 STI   202      11.848  99.531  55.340  1.00 45.18    -0.075 NA
HETATM   32  C7  STI   202      13.911 100.124  53.569  1.00 48.61     0.089 A 
HETATM   33  C12 STI   202      12.675  99.600  53.053  1.00 45.68     0.053 A 
HETATM   34  C11 STI   202      11.648  99.309  53.988  1.00 47.75     0.139 A 
HETATM   35  H13 STI   202      14.182 100.645  57.445  1.00  0.00     0.184 HD
BRANCH  32  36
HETATM   36  C5  STI   202      15.084 100.481  52.702  1.00 49.43     0.011 A 
HETATM   37  C4  STI   202      16.100 101.378  53.221  1.00 47.99     0.130 A 
HETATM   38  N3  STI   202      17.192 101.724  52.432  1.00 51.14    -0.272 NA
HETATM   39  C2  STI   202      17.368 101.242  51.131  1.00 52.94     0.116 A 
HETATM   40  C1  STI   202      16.402 100.351  50.552  1.00 54.02     0.020 A 
HETATM   41  C6  STI   202      15.255  99.972  51.346  1.00 52.26     0.017 A 
ENDBRANCH  32  36
ENDBRANCH   1  28
TORSDOF 6
ENDMDL
MODEL 2
REMARK VINA RESULT:     -10.7      3.695     13.469
REMARK  6 active torsions:
REMARK  status: ('A' for Active; 'I' for Inactive)
REMARK    1  A    between atoms: C5_5  and  C7_7 
REMARK       I    between atoms: C9_9  and  N13_13 
REMARK    2  A    between atoms: C14_14  and  N13_13 
REMARK    3  A    between atoms: C16_16  and  N21_21 
REMARK       I    between atoms: C22_22  and  N21_21 
REMARK    4  A    between atoms: C22_22  and  C23_23 
REMARK    5  A    between atoms: C27_26  and  C46_30 
REMARK    6  A    between atoms: C46_30  and  N48_31 
ROOT
HETATM    1  C14 STI   202       9.391  92.820  63.532  1.00 42.05     0.057 A 
HETATM    2  C15 STI   202       9.692  93.880  62.620  1.00 40.05     0.060 A 
HETATM    3  C16 STI   202      10.817  94.786  62.861  1.00 38.18     0.037 A 
HETATM    4  C17 STI   202      11.608  94.584  64.025  1.00 38.14     0.030 A 
HETATM    5  C18 STI   202      11.316  93.519  64.952  1.00 41.64     0.011 A 
HETATM    6  C19 STI   202      10.214  92.625  64.730  1.00 40.08    -0.035 A 
HETATM    7  C20 STI   202       9.961  91.511  65.774  1.00 40.72     0.050 C 
ENDROOT
BRANCH   3   8
HETATM    8  N21 STI   202      11.179  95.879  61.992  1.00 36.88    -0.323 N 
HETATM    9  C22 STI   202      12.332  96.043  61.248  1.00 34.79     0.256 C 
HETATM   10  O29 STI   202      13.341  95.378  61.381  1.00 40.42    -0.267 OA
HETATM   11  H21 STI   202      10.501  96.623  61.918  1.00  0.00     0.169 HD
BRANCH   9  12
HETATM   12  C23 STI   202      12.380  97.115  60.210  1.00 39.43     0.032 A 
HETATM   13  C25 STI   202      11.242  98.011  60.002  1.00 41.52     0.017 A 
HETATM   14  C26 STI   202      11.306  99.024  58.980  1.00 42.92     0.010 A 
HETATM   15  C27 STI   202      12.504  99.145  58.166  1.00 41.50    -0.033 A 
HETATM   16  C28 STI   202      13.618  98.250  58.397  1.00 41.95     0.010 A 
HETATM   17  C29 STI   202      13.563  97.254  59.394  1.00 42.07     0.017 A 
BRANCH  15  18
HETATM   18  C46 STI   202      12.639 100.183  57.047  1.00 42.63     0.273 C 
BRANCH  18  19
HETATM   19  N48 STI   202      13.283  99.751  55.771  1.00 46.81    -0.064 N 
HETATM   20  C49 STI   202      14.623 100.446  55.555  1.00 44.56     0.263 C 
HETATM   21  C50 STI   202      15.297  99.979  54.228  1.00 46.99     0.262 C 
HETATM   22  N51 STI   202      14.356 100.249  53.063  1.00 45.71    -0.072 N 
HETATM   23  C52 STI   202      13.020  99.553  53.269  1.00 42.59     0.262 C 
HETATM   24  C54 STI   202      15.020  99.870  51.805  1.00 47.72     0.269 C 
HETATM   25  H51 STI   202      14.183 101.244  53.032  1.00  0.00     0.279 HD
HETATM   26  C53 STI   202      12.371 100.002  54.603  1.00 41.12     0.263 C 
HETATM   27  H48 STI   202      13.452  98.757  55.827  1.00  0.00     0.280 HD
ENDBRANCH  18  19
ENDBRANCH  15  18
ENDBRANCH   9  12
ENDBRANCH   3   8
BRANCH   1  28
HETATM   28  N13 STI   202       8.295  91.985  63.256  1.00 45.65    -0.188 N 
HETATM   29  C9  STI   202       7.029  92.200  63.809  1.00 48.27     0.727 A 
HETATM   30  N8  STI   202       6.032  91.337  63.470  1.00 42.11    -0.062 NA
HETATM   31  N10 STI   202       6.766  93.251  64.673  1.00 45.18    -0.075 NA
HETATM   32  C7  STI   202       4.748  91.471  63.962  1.00 48.61     0.089 A 
HETATM   33  C12 STI   202       4.442  92.553  64.860  1.00 45.68     0.053 A 
HETATM   34  C11 STI   202       5.499  93.438  65.199  1.00 47.75     0.139 A 
HETATM   35  H13 STI   202       8.427  91.200  62.635  1.00  0.00     0.184 HD
BRANCH  32  36
HETATM   36  C5  STI   202       3.734  90.460  63.511  1.00 49.43     0.011 A 
HETATM   37  C4  STI   202       3.696  90.072  62.112  1.00 47.99     0.130 A 
HETATM   38  N3  STI   202       2.762  89.139  61.674  1.00 51.14    -0.272 NA
HETATM   39  C2  STI   202       1.833  88.539  62.530  1.00 52.94     0.116 A 
HETATM   40  C1  STI   202       1.812  88.875  63.926  1.00 54.02     0.020 A 
HETATM   41  C6  STI   202       2.770  89.842  64.414  1.00 52.26     0.017 A 
ENDBRANCH  32  36
ENDBRANCH   1  28
TORSDOF 6
ENDMDL
MODEL 3
REMARK VINA RESULT:     -10.2      1.955     13.588
REMARK  6 active torsions:
REMARK  status: ('A' for Active; 'I' for Inactive)
REMARK    1  A    between atoms: C5_5  and  C7_7 
REMARK       I    between atoms: C9_9  and  N13_13 
REMARK    2  A    between atoms: C14_14  and  N13_13 
REMARK    3  A    between atoms: C16_16  and  N21_21 
REMARK       I    between atoms: C22_22  and  N21_21 
REMARK    4  A    between atoms: C22_22  and  C23_23 
REMARK    5  A    between atoms: C27_26  and  C46_30 
REMARK    6  A    between atoms: C46_30  and  N48_31 
ROOT
HETATM    1  C14 STI   202      11.238  94.710  63.452  1.00 42.05     0.057 A 
HETATM    2  C15 STI   202      11.140  95.333  62.169  1.00 40.05     0.060 A 
HETATM    3  C16 STI   202      12.282  96.036  61.580  1.00 38.18     0.037 A 
HETATM    4  C17 STI   202      13.497  96.081  62.316  1.00 38.14     0.030 A 
HETATM    5  C18 STI   202      13.611  95.458  63.612  1.00 41.64     0.011 A 
HETATM    6  C19 STI   202      12.498  94.768  64.202  1.00 40.08    -0.035 A 
HETATM    7  C20 STI   202      12.696  94.130  65.597  1.00 40.72     0.050 C 
ENDROOT
BRANCH   3   8
HETATM    8  N21 STI   202      12.258  96.692  60.296  1.00 36.88    -0.323 N 
HETATM    9  C22 STI   202      11.637  97.876  59.945  1.00 34.79     0.256 C 
HETATM   10  O29 STI   202      10.813  98.454  60.627  1.00 40.42    -0.267 OA
HETATM   11  H21 STI   202      12.760  96.225  59.556  1.00  0.00     0.169 HD
BRANCH   9  12
HETATM   12  C23 STI   202      11.970  98.509  58.634  1.00 39.43     0.032 A 
HETATM   13  C25 STI   202      13.341  98.912  58.321  1.00 41.52     0.017 A 
HETATM   14  C26 STI   202      13.633  99.539  57.057  1.00 42.92     0.010 A 
HETATM   15  C27 STI   202      12.558  99.762  56.104  1.00 41.50    -0.033 A 
HETATM   16  C28 STI   202      11.211  99.347  56.436  1.00 41.95     0.010 A 
HETATM   17  C29 STI   202      10.917  98.734  57.672  1.00 42.07     0.017 A 
BRANCH  15  18
HETATM   18  C46 STI   202      12.785 100.440  54.749  1.00 42.63     0.273 C 
BRANCH  18  19
HETATM   19  N48 STI   202      14.049 100.130  54.018  1.00 46.81    -0.064 N 
HETATM   20  C49 STI   202      15.125 101.174  54.290  1.00 44.56     0.263 C 
HETATM   21  C50 STI   202      16.448 100.836  53.534  1.00 46.99     0.262 C 
HETATM   22  N51 STI   202      16.163 100.731  52.044  1.00 45.71    -0.072 N 
HETATM   23  C52 STI   202      15.095  99.686  51.764  1.00 42.59     0.262 C 
HETATM   24  C54 STI   202      17.423 100.478  51.325  1.00 47.72     0.269 C 
HETATM   25  H51 STI   202      15.807 101.625  51.734  1.00  0.00     0.279 HD
HETATM   26  C53 STI   202      13.794 100.015  52.541  1.00 41.12     0.263 C 
HETATM   27  H48 STI   202      14.389  99.238  54.346  1.00  0.00     0.280 HD
ENDBRANCH  18  19
ENDBRANCH  15  18
ENDBRANCH   9  12
ENDBRANCH   3   8
BRANCH   1  28
HETATM   28  N13 STI   202      10.109  94.057  63.973  1.00 45.65    -0.188 N 
HETATM   29  C9  STI   202      10.065  92.673  64.167  1.00 48.27     0.727 A 
HETATM   30  N8  STI   202       8.925  92.140  64.687  1.00 42.11    -0.062 NA
HETATM   31  N10 STI   202      11.131  91.846  63.856  1.00 45.18    -0.075 NA
HETATM   32  C7  STI   202       8.789  90.785  64.918  1.00 48.61     0.089 A 
HETATM   33  C12 STI   202       9.879  89.900  64.606  1.00 45.68     0.053 A 
HETATM   34  C11 STI   202      11.055  90.480  64.065  1.00 47.75     0.139 A 
HETATM   35  H13 STI   202       9.298  94.608  64.217  1.00  0.00     0.184 HD
BRANCH  32  36
HETATM   36  C5  STI   202       7.485  90.318  65.499  1.00 49.43     0.011 A 
HETATM   37  C4  STI   202       7.228  88.893  65.605  1.00 47.99     0.130 A 
HETATM   38  N3  STI   202       6.025  88.441  66.136  1.00 51.14    -0.272 NA
HETATM   39  C2  STI   202       5.023  89.307  66.585  1.00 52.94     0.116 A 
HETATM   40  C1  STI   202       5.207  90.729  66.510  1.00 54.02     0.020 A 
HETATM   41  C6  STI   202       6.447  91.232  65.963  1.00 52.26     0.017 A 
ENDBRANCH  32  36
ENDBRANCH   1  28
TORSDOF 6
ENDMDL
MODEL 4
REMARK VINA RESULT:     -10.0      2.250     13.401
REMARK  6 active torsions:
REMARK  status: ('A' for Active; 'I' for Inactive)
REMARK    1  A    between atoms: C5_5  and  C7_7 
REMARK       I    between atoms: C9_9  and  N13_13 
REMARK    2  A    between atoms: C14_14  and  N13_13 
REMARK    3  A    between atoms: C16_16  and  N21_21 
REMARK       I    between atoms: C22_22  and  N21_21 
REMARK    4  A    between atoms: C22_22  and  C23_23 
REMARK    5  A    between atoms: C27_26  and  C46_30 
REMARK    6  A    between atoms: C46_30  and  N48_31 
ROOT
HETATM    1  C14 STI   202      11.210  98.375  59.413  1.00 42.05     0.057 A 
HETATM    2  C15 STI   202      12.086  98.340  58.284  1.00 40.05     0.060 A 
HETATM    3  C16 STI   202      12.365  99.549  57.507  1.00 38.18     0.037 A 
HETATM    4  C17 STI   202      11.745 100.765  57.906  1.00 38.14     0.030 A 
HETATM    5  C18 STI   202      10.860 100.815  59.043  1.00 41.64     0.011 A 
HETATM    6  C19 STI   202      10.575  99.636  59.812  1.00 40.08    -0.035 A 
HETATM    7  C20 STI   202       9.610  99.768  61.014  1.00 40.72     0.050 C 
ENDROOT
BRANCH   3   8
HETATM    8  N21 STI   202      13.231  99.592  56.354  1.00 36.88    -0.323 N 
HETATM    9  C22 STI   202      12.886  99.699  55.020  1.00 34.79     0.256 C 
HETATM   10  O29 STI   202      11.760  99.552  54.583  1.00 40.42    -0.267 OA
HETATM   11  H21 STI   202      14.221  99.536  56.546  1.00  0.00     0.169 HD
BRANCH   9  12
HETATM   12  C23 STI   202      13.949 100.002  54.017  1.00 39.43     0.032 A 
HETATM   13  C25 STI   202      15.210 100.622  54.422  1.00 41.52     0.017 A 
HETATM   14  C26 STI   202      16.212 100.922  53.432  1.00 42.92     0.010 A 
HETATM   15  C27 STI   202      15.959 100.600  52.037  1.00 41.50    -0.033 A 
HETATM   16  C28 STI   202      14.705  99.980  51.663  1.00 41.95     0.010 A 
HETATM   17  C29 STI   202      13.717  99.685  52.627  1.00 42.07     0.017 A 
BRANCH  15  18
HETATM   18  C46 STI   202      16.965 100.906  50.923  1.00 42.63     0.273 C 
BRANCH  18  19
HETATM   19  N48 STI   202      16.436 101.108  49.542  1.00 46.81    -0.064 N 
HETATM   20  C49 STI   202      15.975  99.795  48.920  1.00 44.56     0.263 C 
HETATM   21  C50 STI   202      15.409 100.015  47.483  1.00 46.99     0.262 C 
HETATM   22  N51 STI   202      16.473 100.677  46.619  1.00 45.71    -0.072 N 
HETATM   23  C52 STI   202      16.933 101.991  47.230  1.00 42.59     0.262 C 
HETATM   24  C54 STI   202      15.962 100.823  45.246  1.00 47.72     0.269 C 
HETATM   25  H51 STI   202      17.271 100.058  46.586  1.00  0.00     0.279 HD
HETATM   26  C53 STI   202      17.467 101.766  48.668  1.00 41.12     0.263 C 
HETATM   27  H48 STI   202      15.638 101.724  49.600  1.00  0.00     0.280 HD
ENDBRANCH  18  19
ENDBRANCH  15  18
ENDBRANCH   9  12
ENDBRANCH   3   8
BRANCH   1  28
HETATM   28  N13 STI   202      10.971  97.183  60.118  1.00 45.65    -0.188 N 
HETATM   29  C9  STI   202      11.854  96.691  61.084  1.00 48.27     0.727 A 
HETATM   30  N8  STI   202      11.524  95.532  61.716  1.00 42.11    -0.062 NA
HETATM   31  N10 STI   202      13.032  97.342  61.412  1.00 45.18    -0.075 NA
HETATM   32  C7  STI   202      12.331  94.970  62.686  1.00 48.61     0.089 A 
HETATM   33  C12 STI   202      13.560  95.623  63.050  1.00 45.68     0.053 A 
HETATM   34  C11 STI   202      13.883  96.829  62.376  1.00 47.75     0.139 A 
HETATM   35  H13 STI   202      10.129  96.663  59.920  1.00  0.00     0.184 HD
BRANCH  32  36
HETATM   36  C5  STI   202      11.856  93.691  63.314  1.00 49.43     0.011 A 
HETATM   37  C4  STI   202      12.834  92.698  63.720  1.00 47.99     0.130 A 
HETATM   38  N3  STI   202      12.415  91.505  64.300  1.00 51.14    -0.272 NA
HETATM   39  C2  STI   202      11.067  91.203  64.519  1.00 52.94     0.116 A 
HETATM   40  C1  STI   202      10.045  92.139  64.142  1.00 54.02     0.020 A 
HETATM   41  C6  STI   202      10.447  93.388  63.536  1.00 52.26     0.017 A 
ENDBRANCH  32  36
ENDBRANCH   1  28
TORSDOF 6
ENDMDL
