MODEL 1
REMARK VINA RESULT:     -10.4      0.000      0.000
REMARK  6 active torsions:
REMARK  status: ('A' for Active; 'I' for Inactive)
REMARK    1  A    between atoms: C5_5  and  C7_7 
REMARK       I    between atoms: C9_9  and  N13_13 
REMARK    2  A    between atoms: C14_14  and  N13_13 
REMARK    3  A    between atoms: C16_16  and  N21_21 
REMARK       I    between atoms: C22_22  and  N21_21 
REMARK    4  A    between atoms: C22_22  and  C23_23 
REMARK    5  A    between atoms: C27_26  and  C46_30 
REMARK    6  A    between atoms: C46_30  and  N48_31 
ROOT
HETATM    1  C14 STI   202      10.467  93.748  64.364  1.00 42.05     0.057 A 
HETATM    2  C15 STI   202      10.446  94.813  63.409  1.00 40.05     0.060 A 
HETATM    3  C16 STI   202      11.657  95.199  62.683  1.00 38.18     0.037 A 
HETATM    4  C17 STI   202      12.858  94.485  62.945  1.00 38.14     0.030 A 
HETATM    5  C18 STI   202      12.894  93.409  63.904  1.00 41.64     0.011 A 
HETATM    6  C19 STI   202      11.714  93.021  64.627  1.00 40.08    -0.035 A 
HETATM    7  C20 STI   202      11.834  91.862  65.644  1.00 40.72     0.050 C 
ENDROOT
BRANCH   3   8
HETATM    8  N21 STI   202      11.716  96.265  61.711  1.00 36.88    -0.323 N 
HETATM    9  C22 STI   202      12.663  96.483  60.729  1.00 34.79     0.256 C 
HETATM   10  O29 STI   202      13.738  95.919  60.667  1.00 40.42    -0.267 OA
HETATM   11  H21 STI   202      10.967  96.940  61.755  1.00  0.00     0.169 HD
BRANCH   9  12
HETATM   12  C23 STI   202      12.382  97.488  59.661  1.00 39.43     0.032 A 
HETATM   13  C25 STI   202      13.330  98.565  59.375  1.00 41.52     0.017 A 
HETATM   14  C26 STI   202      13.026  99.534  58.353  1.00 42.92     0.010 A 
HETATM   15  C27 STI   202      11.779  99.427  57.614  1.00 41.50    -0.033 A 
HETATM   16  C28 STI   202      10.862  98.348  57.912  1.00 41.95     0.010 A 
HETATM   17  C29 STI   202      11.151  97.396  58.913  1.00 42.07     0.017 A 
BRANCH  15  18
HETATM   18  C46 STI   202      11.376 100.430  56.528  1.00 42.63     0.273 C 
BRANCH  18  19
HETATM   19  N48 STI   202      12.245 100.533  55.318  1.00 46.81    -0.064 N 
HETATM   20  C49 STI   202      11.857  99.508  54.258  1.00 44.56     0.263 C 
HETATM   21  C50 STI   202      12.759  99.632  52.991  1.00 46.99     0.262 C 
HETATM   22  N51 STI   202      14.217  99.466  53.394  1.00 45.71    -0.072 N 
HETATM   23  C52 STI   202      14.613 100.490  54.446  1.00 42.59     0.262 C 
HETATM   24  C54 STI   202      15.062  99.516  52.189  1.00 47.72     0.269 C 
HETATM   25  H51 STI   202      14.321  98.548  53.804  1.00  0.00     0.279 HD
HETATM   26  C53 STI   202      13.693 100.378  55.689  1.00 41.12     0.263 C 
HETATM   27  H48 STI   202      12.121 101.454  54.922  1.00  0.00     0.280 HD
ENDBRANCH  18  19
ENDBRANCH  15  18
ENDBRANCH   9  12
ENDBRANCH   3   8
BRANCH   1  28
HETATM   28  N13 STI   202       9.278  93.424  65.039  1.00 45.65    -0.188 N 
HETATM   29  C9  STI   202       8.353  92.506  64.533  1.00 48.27     0.727 A 
HETATM   30  N8  STI   202       7.237  92.257  65.271  1.00 42.11    -0.062 NA
HETATM   31  N10 STI   202       8.541  91.853  63.326  1.00 45.18    -0.075 NA
HETATM   32  C7  STI   202       6.269  91.363  64.856  1.00 48.61     0.089 A 
HETATM   33  C12 STI   202       6.434  90.668  63.608  1.00 45.68     0.053 A 
HETATM   34  C11 STI   202       7.606  90.946  62.857  1.00 47.75     0.139 A 
HETATM   35  H13 STI   202       9.085  93.872  65.923  1.00  0.00     0.184 HD
BRANCH  32  36
HETATM   36  C5  STI   202       5.084  91.170  65.759  1.00 49.43     0.011 A 
HETATM   37  C4  STI   202       5.237  90.377  66.966  1.00 47.99     0.130 A 
HETATM   38  N3  STI   202       4.152  90.183  67.813  1.00 51.14    -0.272 NA
HETATM   39  C2  STI   202       2.887  90.724  67.559  1.00 52.94     0.116 A 
HETATM   40  C1  STI   202       2.662  91.518  66.383  1.00 54.02     0.020 A 
HETATM   41  C6  STI   202       3.770  91.739  65.482  1.00 52.26     0.017 A 
ENDBRANCH  32  36
ENDBRANCH   1  28
TORSDOF 6
ENDMDL
MODEL 2
REMARK VINA RESULT:      -9.7      2.009     12.934
REMARK  6 active torsions:
REMARK  status: ('A' for Active; 'I' for Inactive)
REMARK    1  A    between atoms: C5_5  and  C7_7 
REMARK       I    between atoms: C9_9  and  N13_13 
REMARK    2  A    between atoms: C14_14  and  N13_13 
REMARK    3  A    between atoms: C16_16  and  N21_21 
REMARK       I    between atoms: C22_22  and  N21_21 
REMARK    4  A    between atoms: C22_22  and  C23_23 
REMARK    5  A    between atoms: C27_26  and  C46_30 
REMARK    6  A    between atoms: C46_30  and  N48_31 
ROOT
HETATM    1  C14 STI   202      13.039  95.655  61.705  1.00 42.05     0.057 A 
HETATM    2  C15 STI   202      11.656  95.348  61.899  1.00 40.05     0.060 A 
HETATM    3  C16 STI   202      11.193  94.688  63.121  1.00 38.18     0.037 A 
HETATM    4  C17 STI   202      12.154  94.360  64.116  1.00 38.14     0.030 A 
HETATM    5  C18 STI   202      13.552  94.664  63.934  1.00 41.64     0.011 A 
HETATM    6  C19 STI   202      14.020  95.309  62.738  1.00 40.08    -0.035 A 
HETATM    7  C20 STI   202      15.536  95.595  62.614  1.00 40.72     0.050 C 
ENDROOT
BRANCH   3   8
HETATM    8  N21 STI   202       9.818  94.342  63.386  1.00 36.88    -0.323 N 
HETATM    9  C22 STI   202       9.275  93.095  63.632  1.00 34.79     0.256 C 
HETATM   10  O29 STI   202       9.851  92.041  63.444  1.00 40.42    -0.267 OA
HETATM   11  H21 STI   202       9.165  95.112  63.393  1.00  0.00     0.169 HD
BRANCH   9  12
HETATM   12  C23 STI   202       7.878  93.001  64.152  1.00 39.43     0.032 A 
HETATM   13  C25 STI   202       7.605  93.064  65.588  1.00 41.52     0.017 A 
HETATM   14  C26 STI   202       6.251  92.951  66.065  1.00 42.92     0.010 A 
HETATM   15  C27 STI   202       5.168  92.777  65.111  1.00 41.50    -0.033 A 
HETATM   16  C28 STI   202       5.465  92.724  63.695  1.00 41.95     0.010 A 
HETATM   17  C29 STI   202       6.789  92.833  63.219  1.00 42.07     0.017 A 
BRANCH  15  18
HETATM   18  C46 STI   202       3.705  92.629  65.541  1.00 42.63     0.273 C 
BRANCH  18  19
HETATM   19  N48 STI   202       3.346  91.459  66.397  1.00 46.81    -0.064 N 
HETATM   20  C49 STI   202       3.705  90.139  65.724  1.00 44.56     0.263 C 
HETATM   21  C50 STI   202       3.341  88.922  66.630  1.00 46.99     0.262 C 
HETATM   22  N51 STI   202       1.858  88.971  66.965  1.00 45.71    -0.072 N 
HETATM   23  C52 STI   202       1.493  90.282  67.643  1.00 42.59     0.262 C 
HETATM   24  C54 STI   202       1.501  87.787  67.764  1.00 47.72     0.269 C 
HETATM   25  H51 STI   202       1.344  88.921  66.096  1.00  0.00     0.279 HD
HETATM   26  C53 STI   202       1.885  91.486  66.748  1.00 41.12     0.263 C 
HETATM   27  H48 STI   202       3.874  91.526  67.254  1.00  0.00     0.280 HD
ENDBRANCH  18  19
ENDBRANCH  15  18
ENDBRANCH   9  12
ENDBRANCH   3   8
BRANCH   1  28
HETATM   28  N13 STI   202      13.429  96.281  60.509  1.00 45.65    -0.188 N 
HETATM   29  C9  STI   202      12.745  97.379  59.979  1.00 48.27     0.727 A 
HETATM   30  N8  STI   202      13.212  97.919  58.819  1.00 42.11    -0.062 NA
HETATM   31  N10 STI   202      11.630  97.925  60.592  1.00 45.18    -0.075 NA
HETATM   32  C7  STI   202      12.606  99.007  58.221  1.00 48.61     0.089 A 
HETATM   33  C12 STI   202      11.446  99.597  58.834  1.00 45.68     0.053 A 
HETATM   34  C11 STI   202      10.979  99.016  60.041  1.00 47.75     0.139 A 
HETATM   35  H13 STI   202      14.235  95.926  60.015  1.00  0.00     0.184 HD
BRANCH  32  36
HETATM   36  C5  STI   202      13.216  99.514  56.946  1.00 49.43     0.011 A 
HETATM   37  C4  STI   202      12.344  99.948  55.869  1.00 47.99     0.130 A 
HETATM   38  N3  STI   202      12.889 100.418  54.679  1.00 51.14    -0.272 NA
HETATM   39  C2  STI   202      14.268 100.496  54.458  1.00 52.94     0.116 A 
HETATM   40  C1  STI   202      15.190 100.083  55.479  1.00 54.02     0.020 A 
HETATM   41  C6  STI   202      14.656  99.590  56.728  1.00 52.26     0.017 A 
ENDBRANCH  32  36
ENDBRANCH   1  28
TORSDOF 6
ENDMDL
MODEL 3
REMARK VINA RESULT:      -9.3      7.687     14.633
REMARK  6 active torsions:
REMARK  status: ('A' for Active; 'I' for Inactive)
REMARK    1  A    between atoms: C5_5  and  C7_7 
REMARK       I    between atoms: C9_9  and  N13_13 
REMARK    2  A    between atoms: C14_14  and  N13_13 
REMARK    3  A    between atoms: C16_16  and  N21_21 
REMARK       I    between atoms: C22_22  and  N21_21 
REMARK    4  A    between atoms: C22_22  and  C23_23 
REMARK    5  A    between atoms: C27_26  and  C46_30 
REMARK    6  A    between atoms: C46_30  and  N48_31 
ROOT
HETATM    1  C14 STI   202       8.507  90.812  63.804  1.00 42.05     0.057 A 
HETATM    2  C15 STI   202       8.868  90.331  65.101  1.00 40.05     0.060 A 
HETATM    3  C16 STI   202       8.878  91.222  66.262  1.00 38.18     0.037 A 
HETATM    4  C17 STI   202       8.515  92.584  66.070  1.00 38.14     0.030 A 
HETATM    5  C18 STI   202       8.149  93.083  64.768  1.00 41.64     0.011 A 
HETATM    6  C19 STI   202       8.138  92.220  63.619  1.00 40.08    -0.035 A 
HETATM    7  C20 STI   202       7.740  92.832  62.255  1.00 40.72     0.050 C 
ENDROOT
BRANCH   3   8
HETATM    8  N21 STI   202       9.235  90.812  67.599  1.00 36.88    -0.323 N 
HETATM    9  C22 STI   202       8.402  90.502  68.656  1.00 34.79     0.256 C 
HETATM   10  O29 STI   202       7.210  90.741  68.691  1.00 40.42    -0.267 OA
HETATM   11  H21 STI   202      10.225  90.743  67.786  1.00  0.00     0.169 HD
BRANCH   9  12
HETATM   12  C23 STI   202       8.978  89.838  69.863  1.00 39.43     0.032 A 
HETATM   13  C25 STI   202       9.722  88.584  69.749  1.00 41.52     0.017 A 
HETATM   14  C26 STI   202      10.250  87.954  70.931  1.00 42.92     0.010 A 
HETATM   15  C27 STI   202      10.039  88.575  72.228  1.00 41.50    -0.033 A 
HETATM   16  C28 STI   202       9.305  89.820  72.313  1.00 41.95     0.010 A 
HETATM   17  C29 STI   202       8.783  90.443  71.160  1.00 42.07     0.017 A 
BRANCH  15  18
HETATM   18  C46 STI   202      10.552  87.956  73.532  1.00 42.63     0.273 C 
BRANCH  18  19
HETATM   19  N48 STI   202      10.317  86.498  73.751  1.00 46.81    -0.064 N 
HETATM   20  C49 STI   202       8.832  86.157  73.710  1.00 44.56     0.263 C 
HETATM   21  C50 STI   202       8.594  84.629  73.925  1.00 46.99     0.262 C 
HETATM   22  N51 STI   202       9.208  84.206  75.251  1.00 45.71    -0.072 N 
HETATM   23  C52 STI   202      10.692  84.538  75.296  1.00 42.59     0.262 C 
HETATM   24  C54 STI   202       8.926  82.780  75.484  1.00 47.72     0.269 C 
HETATM   25  H51 STI   202       8.753  84.733  75.983  1.00  0.00     0.279 HD
HETATM   26  C53 STI   202      10.920  86.052  75.054  1.00 41.12     0.263 C 
HETATM   27  H48 STI   202      10.774  85.993  73.007  1.00  0.00     0.280 HD
ENDBRANCH  18  19
ENDBRANCH  15  18
ENDBRANCH   9  12
ENDBRANCH   3   8
BRANCH   1  28
HETATM   28  N13 STI   202       8.523  89.915  62.723  1.00 45.65    -0.188 N 
HETATM   29  C9  STI   202       7.416  89.134  62.380  1.00 48.27     0.727 A 
HETATM   30  N8  STI   202       7.533  88.302  61.308  1.00 42.11    -0.062 NA
HETATM   31  N10 STI   202       6.224  89.185  63.084  1.00 45.18    -0.075 NA
HETATM   32  C7  STI   202       6.492  87.495  60.890  1.00 48.61     0.089 A 
HETATM   33  C12 STI   202       5.241  87.526  61.600  1.00 45.68     0.053 A 
HETATM   34  C11 STI   202       5.145  88.400  62.714  1.00 47.75     0.139 A 
HETATM   35  H13 STI   202       9.366  89.832  62.173  1.00  0.00     0.184 HD
BRANCH  32  36
HETATM   36  C5  STI   202       6.741  86.624  59.692  1.00 49.43     0.011 A 
HETATM   37  C4  STI   202       6.648  87.204  58.364  1.00 47.99     0.130 A 
HETATM   38  N3  STI   202       6.871  86.414  57.242  1.00 51.14    -0.272 NA
HETATM   39  C2  STI   202       7.188  85.054  57.325  1.00 52.94     0.116 A 
HETATM   40  C1  STI   202       7.296  84.413  58.606  1.00 54.02     0.020 A 
HETATM   41  C6  STI   202       7.070  85.207  59.793  1.00 52.26     0.017 A 
ENDBRANCH  32  36
ENDBRANCH   1  28
TORSDOF 6
ENDMDL
MODEL 4
REMARK VINA RESULT:      -9.3      3.121     12.194
REMARK  6 active torsions:
REMARK  status: ('A' for Active; 'I' for Inactive)
REMARK    1  A    between atoms: C5_5  and  C7_7 
REMARK       I    between atoms: C9_9  and  N13_13 
REMARK    2  A    between atoms: C14_14  and  N13_13 
REMARK    3  A    between atoms: C16_16  and  N21_21 
REMARK       I    between atoms: C22_22  and  N21_21 
REMARK    4  A    between atoms: C22_22  and  C23_23 
REMARK    5  A    between atoms: C27_26  and  C46_30 
REMARK    6  A    between atoms: C46_30  and  N48_31 
ROOT
HETATM    1  C14 STI   202      12.727  95.720  62.032  1.00 42.05     0.057 A 
HETATM    2  C15 STI   202      11.520  94.955  61.966  1.00 40.05     0.060 A 
HETATM    3  C16 STI   202      10.979  94.294  63.155  1.00 38.18     0.037 A 
HETATM    4  C17 STI   202      11.681  94.435  64.383  1.00 38.14     0.030 A 
HETATM    5  C18 STI   202      12.899  95.204  64.464  1.00 41.64     0.011 A 
HETATM    6  C19 STI   202      13.443  95.854  63.305  1.00 40.08    -0.035 A 
HETATM    7  C20 STI   202      14.756  96.655  63.471  1.00 40.72     0.050 C 
ENDROOT
BRANCH   3   8
HETATM    8  N21 STI   202       9.773  93.502  63.166  1.00 36.88    -0.323 N 
HETATM    9  C22 STI   202       8.827  93.387  64.167  1.00 34.79     0.256 C 
HETATM   10  O29 STI   202       8.979  93.775  65.310  1.00 40.42    -0.267 OA
HETATM   11  H21 STI   202       9.596  92.962  62.333  1.00  0.00     0.169 HD
BRANCH   9  12
HETATM   12  C23 STI   202       7.523  92.729  63.861  1.00 39.43     0.032 A 
HETATM   13  C25 STI   202       6.309  93.092  64.592  1.00 41.52     0.017 A 
HETATM   14  C26 STI   202       5.066  92.428  64.291  1.00 42.92     0.010 A 
HETATM   15  C27 STI   202       5.033  91.405  63.260  1.00 41.50    -0.033 A 
HETATM   16  C28 STI   202       6.247  91.069  62.547  1.00 41.95     0.010 A 
HETATM   17  C29 STI   202       7.469  91.713  62.837  1.00 42.07     0.017 A 
BRANCH  15  18
HETATM   18  C46 STI   202       3.756  90.640  62.897  1.00 42.63     0.273 C 
BRANCH  18  19
HETATM   19  N48 STI   202       3.897  89.387  62.097  1.00 46.81    -0.064 N 
HETATM   20  C49 STI   202       3.360  89.562  60.681  1.00 44.56     0.263 C 
HETATM   21  C50 STI   202       3.524  88.254  59.846  1.00 46.99     0.262 C 
HETATM   22  N51 STI   202       2.813  87.112  60.556  1.00 45.71    -0.072 N 
HETATM   23  C52 STI   202       3.349  86.927  61.967  1.00 42.59     0.262 C 
HETATM   24  C54 STI   202       2.912  85.893  59.735  1.00 47.72     0.269 C 
HETATM   25  H51 STI   202       1.835  87.355  60.628  1.00  0.00     0.279 HD
HETATM   26  C53 STI   202       3.207  88.240  62.780  1.00 41.12     0.263 C 
HETATM   27  H48 STI   202       4.880  89.167  62.033  1.00  0.00     0.280 HD
ENDBRANCH  18  19
ENDBRANCH  15  18
ENDBRANCH   9  12
ENDBRANCH   3   8
BRANCH   1  28
HETATM   28  N13 STI   202      13.206  96.325  60.858  1.00 45.65    -0.188 N 
HETATM   29  C9  STI   202      12.540  97.383  60.232  1.00 48.27     0.727 A 
HETATM   30  N8  STI   202      13.095  97.905  59.104  1.00 42.11    -0.062 NA
HETATM   31  N10 STI   202      11.356  97.908  60.724  1.00 45.18    -0.075 NA
HETATM   32  C7  STI   202      12.512  98.954  58.419  1.00 48.61     0.089 A 
HETATM   33  C12 STI   202      11.282  99.521  58.904  1.00 45.68     0.053 A 
HETATM   34  C11 STI   202      10.724  98.959  60.081  1.00 47.75     0.139 A 
HETATM   35  H13 STI   202      14.065  95.983  60.451  1.00  0.00     0.184 HD
BRANCH  32  36
HETATM   36  C5  STI   202      13.221  99.446  57.190  1.00 49.43     0.011 A 
HETATM   37  C4  STI   202      12.438  99.940  56.072  1.00 47.99     0.130 A 
HETATM   38  N3  STI   202      13.076 100.396  54.923  1.00 51.14    -0.272 NA
HETATM   39  C2  STI   202      14.467 100.405  54.783  1.00 52.94     0.116 A 
HETATM   40  C1  STI   202      15.305  99.930  55.848  1.00 54.02     0.020 A 
HETATM   41  C6  STI   202      14.674  99.448  57.056  1.00 52.26     0.017 A 
ENDBRANCH  32  36
ENDBRANCH   1  28
TORSDOF 6
ENDMDL
MODEL 5
REMARK VINA RESULT:      -9.2      7.118     15.625
REMARK  6 active torsions:
REMARK  status: ('A' for Active; 'I' for Inactive)
REMARK    1  A    between atoms: C5_5  and  C7_7 
REMARK       I    between atoms: C9_9  and  N13_13 
REMARK    2  A    between atoms: C14_14  and  N13_13 
REMARK    3  A    between atoms: C16_16  and  N21_21 
REMARK       I    between atoms: C22_22  and  N21_21 
REMARK    4  A    between atoms: C22_22  and  C23_23 
REMARK    5  A    between atoms: C27_26  and  C46_30 
REMARK    6  A    between atoms: C46_30  and  N48_31 
ROOT
HETATM    1  C14 STI   202       8.227  91.486  66.800  1.00 42.05     0.057 A 
HETATM    2  C15 STI   202       8.588  90.347  67.587  1.00 40.05     0.060 A 
HETATM    3  C16 STI   202       7.566  89.474  68.165  1.00 38.18     0.037 A 
HETATM    4  C17 STI   202       6.199  89.783  67.921  1.00 38.14     0.030 A 
HETATM    5  C18 STI   202       5.821  90.927  67.130  1.00 41.64     0.011 A 
HETATM    6  C19 STI   202       6.814  91.795  66.560  1.00 40.08    -0.035 A 
HETATM    7  C20 STI   202       6.329  93.006  65.728  1.00 40.72     0.050 C 
ENDROOT
BRANCH   3   8
HETATM    8  N21 STI   202       7.851  88.313  68.972  1.00 36.88    -0.323 N 
HETATM    9  C22 STI   202       7.985  86.997  68.572  1.00 34.79     0.256 C 
HETATM   10  O29 STI   202       7.661  86.570  67.481  1.00 40.42    -0.267 OA
HETATM   11  H21 STI   202       7.968  88.484  69.960  1.00  0.00     0.169 HD
BRANCH   9  12
HETATM   12  C23 STI   202       8.551  86.001  69.530  1.00 39.43     0.032 A 
HETATM   13  C25 STI   202       7.801  84.798  69.893  1.00 41.52     0.017 A 
HETATM   14  C26 STI   202       8.361  83.863  70.835  1.00 42.92     0.010 A 
HETATM   15  C27 STI   202       9.668  84.125  71.413  1.00 41.50    -0.033 A 
HETATM   16  C28 STI   202      10.392  85.320  71.032  1.00 41.95     0.010 A 
HETATM   17  C29 STI   202       9.850  86.242  70.111  1.00 42.07     0.017 A 
BRANCH  15  18
HETATM   18  C46 STI   202      10.321  83.189  72.436  1.00 42.63     0.273 C 
BRANCH  18  19
HETATM   19  N48 STI   202      11.704  82.704  72.153  1.00 46.81    -0.064 N 
HETATM   20  C49 STI   202      11.720  81.216  71.822  1.00 44.56     0.263 C 
HETATM   21  C50 STI   202      13.167  80.718  71.513  1.00 46.99     0.262 C 
HETATM   22  N51 STI   202      14.066  81.017  72.703  1.00 45.71    -0.072 N 
HETATM   23  C52 STI   202      14.060  82.501  73.034  1.00 42.59     0.262 C 
HETATM   24  C54 STI   202      15.415  80.488  72.437  1.00 47.72     0.269 C 
HETATM   25  H51 STI   202      13.694  80.522  73.502  1.00  0.00     0.279 HD
HETATM   26  C53 STI   202      12.616  82.992  73.312  1.00 41.12     0.263 C 
HETATM   27  H48 STI   202      12.052  83.206  71.349  1.00  0.00     0.280 HD
ENDBRANCH  18  19
ENDBRANCH  15  18
ENDBRANCH   9  12
ENDBRANCH   3   8
BRANCH   1  28
HETATM   28  N13 STI   202       9.250  92.295  66.277  1.00 45.65    -0.188 N 
HETATM   29  C9  STI   202      10.263  91.789  65.457  1.00 48.27     0.727 A 
HETATM   30  N8  STI   202      11.201  92.661  64.994  1.00 42.11    -0.062 NA
HETATM   31  N10 STI   202      10.333  90.451  65.105  1.00 45.18    -0.075 NA
HETATM   32  C7  STI   202      12.237  92.255  64.175  1.00 48.61     0.089 A 
HETATM   33  C12 STI   202      12.338  90.873  63.791  1.00 45.68     0.053 A 
HETATM   34  C11 STI   202      11.348  89.984  64.287  1.00 47.75     0.139 A 
HETATM   35  H13 STI   202       9.252  93.280  66.501  1.00  0.00     0.184 HD
BRANCH  32  36
HETATM   36  C5  STI   202      13.206  93.311  63.726  1.00 49.43     0.011 A 
HETATM   37  C4  STI   202      12.899  94.707  63.978  1.00 47.99     0.130 A 
HETATM   38  N3  STI   202      13.782  95.700  63.566  1.00 51.14    -0.272 NA
HETATM   39  C2  STI   202      14.982  95.418  62.906  1.00 52.94     0.116 A 
HETATM   40  C1  STI   202      15.351  94.059  62.623  1.00 54.02     0.020 A 
HETATM   41  C6  STI   202      14.455  93.003  63.037  1.00 52.26     0.017 A 
ENDBRANCH  32  36
ENDBRANCH   1  28
TORSDOF 6
ENDMDL
MODEL 6
REMARK VINA RESULT:      -9.1      2.661     12.484
REMARK  6 active torsions:
REMARK  status: ('A' for Active; 'I' for Inactive)
REMARK    1  A    between atoms: C5_5  and  C7_7 
REMARK       I    between atoms: C9_9  and  N13_13 
REMARK    2  A    between atoms: C14_14  and  N13_13 
REMARK    3  A    between atoms: C16_16  and  N21_21 
REMARK       I    between atoms: C22_22  and  N21_21 
REMARK    4  A    between atoms: C22_22  and  C23_23 
REMARK    5  A    between atoms: C27_26  and  C46_30 
REMARK    6  A    between atoms: C46_30  and  N48_31 
ROOT
HETATM    1  C14 STI   202      12.666  95.765  61.846  1.00 42.05     0.057 A 
HETATM    2  C15 STI   202      11.359  95.187  61.879  1.00 40.05     0.060 A 
HETATM    3  C16 STI   202      10.839  94.563  63.097  1.00 38.18     0.037 A 
HETATM    4  C17 STI   202      11.667  94.548  64.253  1.00 38.14     0.030 A 
HETATM    5  C18 STI   202      12.988  95.128  64.234  1.00 41.64     0.011 A 
HETATM    6  C19 STI   202      13.511  95.740  63.045  1.00 40.08    -0.035 A 
HETATM    7  C20 STI   202      14.938  96.334  63.102  1.00 40.72     0.050 C 
ENDROOT
BRANCH   3   8
HETATM    8  N21 STI   202       9.536  93.954  63.207  1.00 36.88    -0.323 N 
HETATM    9  C22 STI   202       9.218  92.650  63.533  1.00 34.79     0.256 C 
HETATM   10  O29 STI   202      10.015  91.732  63.569  1.00 40.42    -0.267 OA
HETATM   11  H21 STI   202       8.752  94.562  63.020  1.00  0.00     0.169 HD
BRANCH   9  12
HETATM   12  C23 STI   202       7.801  92.307  63.856  1.00 39.43     0.032 A 
HETATM   13  C25 STI   202       6.692  93.028  63.232  1.00 41.52     0.017 A 
HETATM   14  C26 STI   202       5.335  92.691  63.575  1.00 42.92     0.010 A 
HETATM   15  C27 STI   202       5.082  91.634  64.539  1.00 41.50    -0.033 A 
HETATM   16  C28 STI   202       6.197  90.931  65.138  1.00 41.95     0.010 A 
HETATM   17  C29 STI   202       7.530  91.256  64.808  1.00 42.07     0.017 A 
BRANCH  15  18
HETATM   18  C46 STI   202       3.668  91.231  64.971  1.00 42.63     0.273 C 
BRANCH  18  19
HETATM   19  N48 STI   202       3.006  90.114  64.235  1.00 46.81    -0.064 N 
HETATM   20  C49 STI   202       3.308  88.763  64.874  1.00 44.56     0.263 C 
HETATM   21  C50 STI   202       2.601  87.602  64.109  1.00 46.99     0.262 C 
HETATM   22  N51 STI   202       3.040  87.619  62.653  1.00 45.71    -0.072 N 
HETATM   23  C52 STI   202       2.736  88.961  62.006  1.00 42.59     0.262 C 
HETATM   24  C54 STI   202       2.425  86.482  61.946  1.00 47.72     0.269 C 
HETATM   25  H51 STI   202       4.042  87.488  62.631  1.00  0.00     0.279 HD
HETATM   26  C53 STI   202       3.419  90.111  62.790  1.00 41.12     0.263 C 
HETATM   27  H48 STI   202       2.008  90.262  64.274  1.00  0.00     0.280 HD
ENDBRANCH  18  19
ENDBRANCH  15  18
ENDBRANCH   9  12
ENDBRANCH   3   8
BRANCH   1  28
HETATM   28  N13 STI   202      13.117  96.343  60.648  1.00 45.65    -0.188 N 
HETATM   29  C9  STI   202      12.494  97.451  60.067  1.00 48.27     0.727 A 
HETATM   30  N8  STI   202      13.017  97.940  58.909  1.00 42.11    -0.062 NA
HETATM   31  N10 STI   202      11.382  98.056  60.630  1.00 45.18    -0.075 NA
HETATM   32  C7  STI   202      12.472  99.034  58.264  1.00 48.61     0.089 A 
HETATM   33  C12 STI   202      11.318  99.685  58.823  1.00 45.68     0.053 A 
HETATM   34  C11 STI   202      10.792  99.156  60.030  1.00 47.75     0.139 A 
HETATM   35  H13 STI   202      13.923  95.943  60.189  1.00  0.00     0.184 HD
BRANCH  32  36
HETATM   36  C5  STI   202      13.141  99.482  56.996  1.00 49.43     0.011 A 
HETATM   37  C4  STI   202      14.590  99.552  56.947  1.00 47.99     0.130 A 
HETATM   38  N3  STI   202      15.228  99.968  55.783  1.00 51.14    -0.272 NA
HETATM   39  C2  STI   202      14.531 100.334  54.628  1.00 52.94     0.116 A 
HETATM   40  C1  STI   202      13.096 100.291  54.604  1.00 54.02     0.020 A 
HETATM   41  C6  STI   202      12.402  99.862  55.797  1.00 52.26     0.017 A 
ENDBRANCH  32  36
ENDBRANCH   1  28
TORSDOF 6
ENDMDL
MODEL 7
REMARK VINA RESULT:      -8.8     16.858     20.493
REMARK  6 active torsions:
REMARK  status: ('A' for Active; 'I' for Inactive)
REMARK    1  A    between atoms: C5_5  and  C7_7 
REMARK       I    between atoms: C9_9  and  N13_13 
REMARK    2  A    between atoms: C14_14  and  N13_13 
REMARK    3  A    between atoms: C16_16  and  N21_21 
REMARK       I    between atoms: C22_22  and  N21_21 
REMARK    4  A    between atoms: C22_22  and  C23_23 
REMARK    5  A    between atoms: C27_26  and  C46_30 
REMARK    6  A    between atoms: C46_30  and  N48_31 
ROOT
HETATM    1  C14 STI   202      12.472  85.355  44.654  1.00 42.05     0.057 A 
HETATM    2  C15 STI   202      11.520  86.404  44.458  1.00 40.05     0.060 A 
HETATM    3  C16 STI   202      11.464  87.552  45.365  1.00 38.18     0.037 A 
HETATM    4  C17 STI   202      12.385  87.602  46.447  1.00 38.14     0.030 A 
HETATM    5  C18 STI   202      13.351  86.552  46.656  1.00 41.64     0.011 A 
HETATM    6  C19 STI   202      13.415  85.418  45.776  1.00 40.08    -0.035 A 
HETATM    7  C20 STI   202      14.474  84.330  46.070  1.00 40.72     0.050 C 
ENDROOT
BRANCH   3   8
HETATM    8  N21 STI   202      10.530  88.644  45.236  1.00 36.88    -0.323 N 
HETATM    9  C22 STI   202      10.793  89.981  45.005  1.00 34.79     0.256 C 
HETATM   10  O29 STI   202      11.892  90.494  45.093  1.00 40.42    -0.267 OA
HETATM   11  H21 STI   202       9.554  88.399  45.327  1.00  0.00     0.169 HD
BRANCH   9  12
HETATM   12  C23 STI   202       9.667  90.889  44.636  1.00 39.43     0.032 A 
HETATM   13  C25 STI   202       8.384  90.350  44.186  1.00 41.52     0.017 A 
HETATM   14  C26 STI   202       7.320  91.248  43.816  1.00 42.92     0.010 A 
HETATM   15  C27 STI   202       7.535  92.683  43.896  1.00 41.50    -0.033 A 
HETATM   16  C28 STI   202       8.812  93.190  44.351  1.00 41.95     0.010 A 
HETATM   17  C29 STI   202       9.860  92.318  44.713  1.00 42.07     0.017 A 
BRANCH  15  18
HETATM   18  C46 STI   202       6.460  93.702  43.501  1.00 42.63     0.273 C 
BRANCH  18  19
HETATM   19  N48 STI   202       5.829  94.506  44.589  1.00 46.81    -0.064 N 
HETATM   20  C49 STI   202       5.703  93.704  45.879  1.00 44.56     0.263 C 
HETATM   21  C50 STI   202       5.057  94.556  47.016  1.00 46.99     0.262 C 
HETATM   22  N51 STI   202       3.696  95.058  46.557  1.00 45.71    -0.072 N 
HETATM   23  C52 STI   202       3.816  95.865  45.274  1.00 42.59     0.262 C 
HETATM   24  C54 STI   202       3.058  95.805  47.654  1.00 47.72     0.269 C 
HETATM   25  H51 STI   202       3.120  94.251  46.360  1.00  0.00     0.279 HD
HETATM   26  C53 STI   202       4.484  95.020  44.159  1.00 41.12     0.263 C 
HETATM   27  H48 STI   202       6.423  95.302  44.773  1.00  0.00     0.280 HD
ENDBRANCH  18  19
ENDBRANCH  15  18
ENDBRANCH   9  12
ENDBRANCH   3   8
BRANCH   1  28
HETATM   28  N13 STI   202      12.476  84.273  43.758  1.00 45.65    -0.188 N 
HETATM   29  C9  STI   202      11.913  83.033  44.076  1.00 48.27     0.727 A 
HETATM   30  N8  STI   202      11.962  82.052  43.132  1.00 42.11    -0.062 NA
HETATM   31  N10 STI   202      11.314  82.782  45.299  1.00 45.18    -0.075 NA
HETATM   32  C7  STI   202      11.429  80.797  43.352  1.00 48.61     0.089 A 
HETATM   33  C12 STI   202      10.799  80.505  44.612  1.00 45.68     0.053 A 
HETATM   34  C11 STI   202      10.762  81.543  45.579  1.00 47.75     0.139 A 
HETATM   35  H13 STI   202      12.902  84.395  42.851  1.00  0.00     0.184 HD
BRANCH  32  36
HETATM   36  C5  STI   202      11.540  79.801  42.233  1.00 49.43     0.011 A 
HETATM   37  C4  STI   202      12.250  78.556  42.463  1.00 47.99     0.130 A 
HETATM   38  N3  STI   202      12.368  77.623  41.439  1.00 51.14    -0.272 NA
HETATM   39  C2  STI   202      11.825  77.824  40.166  1.00 52.94     0.116 A 
HETATM   40  C1  STI   202      11.110  79.034  39.867  1.00 54.02     0.020 A 
HETATM   41  C6  STI   202      10.970  80.025  40.909  1.00 52.26     0.017 A 
ENDBRANCH  32  36
ENDBRANCH   1  28
TORSDOF 6
ENDMDL
