MODEL 1
REMARK VINA RESULT:     -13.9      0.000      0.000
REMARK  6 active torsions:
REMARK  status: ('A' for Active; 'I' for Inactive)
REMARK    1  A    between atoms: C5_5  and  C7_7 
REMARK       I    between atoms: C9_9  and  N13_13 
REMARK    2  A    between atoms: C14_14  and  N13_13 
REMARK    3  A    between atoms: C16_16  and  N21_21 
REMARK       I    between atoms: C22_22  and  N21_21 
REMARK    4  A    between atoms: C22_22  and  C23_23 
REMARK    5  A    between atoms: C27_26  and  C46_30 
REMARK    6  A    between atoms: C46_30  and  N48_31 
ROOT
HETATM    1  C14 STI   202      12.313 100.026  58.153  1.00 42.05     0.057 A 
HETATM    2  C15 STI   202      12.437  98.846  58.951  1.00 40.05     0.060 A 
HETATM    3  C16 STI   202      11.460  98.535  59.997  1.00 38.18     0.037 A 
HETATM    4  C17 STI   202      10.379  99.436  60.199  1.00 38.14     0.030 A 
HETATM    5  C18 STI   202      10.241 100.630  59.401  1.00 41.64     0.011 A 
HETATM    6  C19 STI   202      11.194 100.948  58.374  1.00 40.08    -0.035 A 
HETATM    7  C20 STI   202      10.982 102.250  57.566  1.00 40.72     0.050 C 
ENDROOT
BRANCH   3   8
HETATM    8  N21 STI   202      11.521  97.370  60.845  1.00 36.88    -0.323 N 
HETATM    9  C22 STI   202      12.498  96.395  60.901  1.00 34.79     0.256 C 
HETATM   10  O29 STI   202      13.375  96.247  60.071  1.00 40.42    -0.267 OA
HETATM   11  H21 STI   202      10.747  97.250  61.482  1.00  0.00     0.169 HD
BRANCH   9  12
HETATM   12  C23 STI   202      12.497  95.429  62.040  1.00 39.43     0.032 A 
HETATM   13  C25 STI   202      13.702  94.678  62.389  1.00 41.52     0.017 A 
HETATM   14  C26 STI   202      13.669  93.738  63.480  1.00 42.92     0.010 A 
HETATM   15  C27 STI   202      12.435  93.548  64.224  1.00 41.50    -0.033 A 
HETATM   16  C28 STI   202      11.258  94.309  63.862  1.00 41.95     0.010 A 
HETATM   17  C29 STI   202      11.281  95.231  62.793  1.00 42.07     0.017 A 
BRANCH  15  18
HETATM   18  C46 STI   202      12.314  92.553  65.383  1.00 42.63     0.273 C 
BRANCH  18  19
HETATM   19  N48 STI   202      11.114  91.665  65.417  1.00 46.81    -0.064 N 
HETATM   20  C49 STI   202      11.097  90.792  66.666  1.00 44.56     0.263 C 
HETATM   21  C50 STI   202       9.833  89.878  66.703  1.00 46.99     0.262 C 
HETATM   22  N51 STI   202       9.794  89.022  65.446  1.00 45.71    -0.072 N 
HETATM   23  C52 STI   202       9.804  89.888  64.196  1.00 42.59     0.262 C 
HETATM   24  C54 STI   202       8.637  88.113  65.513  1.00 47.72     0.269 C 
HETATM   25  H51 STI   202      10.630  88.455  65.434  1.00  0.00     0.279 HD
HETATM   26  C53 STI   202      11.048  90.812  64.182  1.00 41.12     0.263 C 
HETATM   27  H48 STI   202      10.293  92.252  65.435  1.00  0.00     0.280 HD
ENDBRANCH  18  19
ENDBRANCH  15  18
ENDBRANCH   9  12
ENDBRANCH   3   8
BRANCH   1  28
HETATM   28  N13 STI   202      13.283 100.279  57.169  1.00 45.65    -0.188 N 
HETATM   29  C9  STI   202      13.057 100.034  55.811  1.00 48.27     0.727 A 
HETATM   30  N8  STI   202      14.061 100.324  54.938  1.00 42.11    -0.062 NA
HETATM   31  N10 STI   202      11.861  99.520  55.339  1.00 45.18    -0.075 NA
HETATM   32  C7  STI   202      13.930 100.120  53.578  1.00 48.61     0.089 A 
HETATM   33  C12 STI   202      12.700  99.588  53.056  1.00 45.68     0.053 A 
HETATM   34  C11 STI   202      11.669  99.294  53.987  1.00 47.75     0.139 A 
HETATM   35  H13 STI   202      14.177 100.653  57.453  1.00  0.00     0.184 HD
BRANCH  32  36
HETATM   36  C5  STI   202      15.106 100.481  52.716  1.00 49.43     0.011 A 
HETATM   37  C4  STI   202      16.120 101.378  53.242  1.00 47.99     0.130 A 
HETATM   38  N3  STI   202      17.214 101.727  52.459  1.00 51.14    -0.272 NA
HETATM   39  C2  STI   202      17.395 101.251  51.156  1.00 52.94     0.116 A 
HETATM   40  C1  STI   202      16.432 100.361  50.570  1.00 54.02     0.020 A 
HETATM   41  C6  STI   202      15.283  99.978  51.359  1.00 52.26     0.017 A 
ENDBRANCH  32  36
ENDBRANCH   1  28
TORSDOF 6
ENDMDL
MODEL 2
REMARK VINA RESULT:     -11.4      6.434     12.505
REMARK  6 active torsions:
REMARK  status: ('A' for Active; 'I' for Inactive)
REMARK    1  A    between atoms: C5_5  and  C7_7 
REMARK       I    between atoms: C9_9  and  N13_13 
REMARK    2  A    between atoms: C14_14  and  N13_13 
REMARK    3  A    between atoms: C16_16  and  N21_21 
REMARK       I    between atoms: C22_22  and  N21_21 
REMARK    4  A    between atoms: C22_22  and  C23_23 
REMARK    5  A    between atoms: C27_26  and  C46_30 
REMARK    6  A    between atoms: C46_30  and  N48_31 
ROOT
HETATM    1  C14 STI   202      17.271 101.823  45.884  1.00 42.05     0.057 A 
HETATM    2  C15 STI   202      17.032 101.458  47.246  1.00 40.05     0.060 A 
HETATM    3  C16 STI   202      15.891 102.001  47.985  1.00 38.18     0.037 A 
HETATM    4  C17 STI   202      15.019 102.901  47.313  1.00 38.14     0.030 A 
HETATM    5  C18 STI   202      15.247 103.278  45.940  1.00 41.64     0.011 A 
HETATM    6  C19 STI   202      16.365 102.755  45.204  1.00 40.08    -0.035 A 
HETATM    7  C20 STI   202      16.546 103.211  43.737  1.00 40.72     0.050 C 
ENDROOT
BRANCH   3   8
HETATM    8  N21 STI   202      15.588 101.685  49.360  1.00 36.88    -0.323 N 
HETATM    9  C22 STI   202      15.738 100.480  50.020  1.00 34.79     0.256 C 
HETATM   10  O29 STI   202      15.949  99.414  49.474  1.00 40.42    -0.267 OA
HETATM   11  H21 STI   202      15.219 102.444  49.913  1.00  0.00     0.169 HD
BRANCH   9  12
HETATM   12  C23 STI   202      15.622 100.449  51.508  1.00 39.43     0.032 A 
HETATM   13  C25 STI   202      16.464 101.303  52.346  1.00 41.52     0.017 A 
HETATM   14  C26 STI   202      16.347 101.239  53.780  1.00 42.92     0.010 A 
HETATM   15  C27 STI   202      15.389 100.326  54.380  1.00 41.50    -0.033 A 
HETATM   16  C28 STI   202      14.563  99.496  53.528  1.00 41.95     0.010 A 
HETATM   17  C29 STI   202      14.673  99.551  52.122  1.00 42.07     0.017 A 
BRANCH  15  18
HETATM   18  C46 STI   202      15.220 100.186  55.896  1.00 42.63     0.273 C 
BRANCH  18  19
HETATM   19  N48 STI   202      13.903  99.701  56.409  1.00 46.81    -0.064 N 
HETATM   20  C49 STI   202      12.816 100.757  56.248  1.00 44.56     0.263 C 
HETATM   21  C50 STI   202      11.440 100.239  56.771  1.00 46.99     0.262 C 
HETATM   22  N51 STI   202      11.580  99.826  58.229  1.00 45.71    -0.072 N 
HETATM   23  C52 STI   202      12.659  98.768  58.396  1.00 42.59     0.262 C 
HETATM   24  C54 STI   202      10.267  99.401  58.741  1.00 47.72     0.269 C 
HETATM   25  H51 STI   202      11.865 100.641  58.754  1.00  0.00     0.279 HD
HETATM   26  C53 STI   202      14.015  99.281  57.847  1.00 41.12     0.263 C 
HETATM   27  H48 STI   202      13.636  98.893  55.867  1.00  0.00     0.280 HD
ENDBRANCH  18  19
ENDBRANCH  15  18
ENDBRANCH   9  12
ENDBRANCH   3   8
BRANCH   1  28
HETATM   28  N13 STI   202      18.386 101.278  45.225  1.00 45.65    -0.188 N 
HETATM   29  C9  STI   202      18.567  99.901  45.069  1.00 48.27     0.727 A 
HETATM   30  N8  STI   202      19.678  99.477  44.406  1.00 42.11    -0.062 NA
HETATM   31  N10 STI   202      17.660  98.974  45.556  1.00 45.18    -0.075 NA
HETATM   32  C7  STI   202      19.941  98.137  44.198  1.00 48.61     0.089 A 
HETATM   33  C12 STI   202      19.019  97.149  44.691  1.00 45.68     0.053 A 
HETATM   34  C11 STI   202      17.869  97.616  45.379  1.00 47.75     0.139 A 
HETATM   35  H13 STI   202      19.082 101.906  44.851  1.00  0.00     0.184 HD
BRANCH  32  36
HETATM   36  C5  STI   202      21.197  97.795  43.449  1.00 49.43     0.011 A 
HETATM   37  C4  STI   202      21.436  98.404  42.153  1.00 47.99     0.130 A 
HETATM   38  N3  STI   202      22.591  98.097  41.442  1.00 51.14    -0.272 NA
HETATM   39  C2  STI   202      23.560  97.209  41.921  1.00 52.94     0.116 A 
HETATM   40  C1  STI   202      23.389  96.569  43.195  1.00 54.02     0.020 A 
HETATM   41  C6  STI   202      22.199  96.866  43.959  1.00 52.26     0.017 A 
ENDBRANCH  32  36
ENDBRANCH   1  28
TORSDOF 6
ENDMDL
MODEL 3
REMARK VINA RESULT:     -10.3      6.849     12.667
REMARK  6 active torsions:
REMARK  status: ('A' for Active; 'I' for Inactive)
REMARK    1  A    between atoms: C5_5  and  C7_7 
REMARK       I    between atoms: C9_9  and  N13_13 
REMARK    2  A    between atoms: C14_14  and  N13_13 
REMARK    3  A    between atoms: C16_16  and  N21_21 
REMARK       I    between atoms: C22_22  and  N21_21 
REMARK    4  A    between atoms: C22_22  and  C23_23 
REMARK    5  A    between atoms: C27_26  and  C46_30 
REMARK    6  A    between atoms: C46_30  and  N48_31 
ROOT
HETATM    1  C14 STI   202      16.182 101.569  45.627  1.00 42.05     0.057 A 
HETATM    2  C15 STI   202      15.636 101.413  46.939  1.00 40.05     0.060 A 
HETATM    3  C16 STI   202      16.476 101.559  48.129  1.00 38.18     0.037 A 
HETATM    4  C17 STI   202      17.853 101.867  47.949  1.00 38.14     0.030 A 
HETATM    5  C18 STI   202      18.417 102.028  46.632  1.00 41.64     0.011 A 
HETATM    6  C19 STI   202      17.604 101.883  45.455  1.00 40.08    -0.035 A 
HETATM    7  C20 STI   202      18.284 102.064  44.077  1.00 40.72     0.050 C 
ENDROOT
BRANCH   3   8
HETATM    8  N21 STI   202      16.000 101.411  49.483  1.00 36.88    -0.323 N 
HETATM    9  C22 STI   202      15.939 100.266  50.254  1.00 34.79     0.256 C 
HETATM   10  O29 STI   202      16.078  99.136  49.826  1.00 40.42    -0.267 OA
HETATM   11  H21 STI   202      15.668 102.255  49.926  1.00  0.00     0.169 HD
BRANCH   9  12
HETATM   12  C23 STI   202      15.670 100.390  51.718  1.00 39.43     0.032 A 
HETATM   13  C25 STI   202      16.475 101.276  52.558  1.00 41.52     0.017 A 
HETATM   14  C26 STI   202      16.207 101.362  53.970  1.00 42.92     0.010 A 
HETATM   15  C27 STI   202      15.135 100.567  54.545  1.00 41.50    -0.033 A 
HETATM   16  C28 STI   202      14.349  99.703  53.691  1.00 41.95     0.010 A 
HETATM   17  C29 STI   202      14.606  99.611  52.306  1.00 42.07     0.017 A 
BRANCH  15  18
HETATM   18  C46 STI   202      14.803 100.589  56.041  1.00 42.63     0.273 C 
BRANCH  18  19
HETATM   19  N48 STI   202      13.585  99.854  56.495  1.00 46.81    -0.064 N 
HETATM   20  C49 STI   202      12.353 100.751  56.487  1.00 44.56     0.263 C 
HETATM   21  C50 STI   202      11.081  99.972  56.948  1.00 46.99     0.262 C 
HETATM   22  N51 STI   202      11.320  99.395  58.335  1.00 45.71    -0.072 N 
HETATM   23  C52 STI   202      12.545  98.494  58.349  1.00 42.59     0.262 C 
HETATM   24  C54 STI   202      10.097  98.718  58.797  1.00 47.72     0.269 C 
HETATM   25  H51 STI   202      11.499 100.167  58.963  1.00  0.00     0.279 HD
HETATM   26  C53 STI   202      13.797  99.268  57.862  1.00 41.12     0.263 C 
HETATM   27  H48 STI   202      13.422  99.093  55.851  1.00  0.00     0.280 HD
ENDBRANCH  18  19
ENDBRANCH  15  18
ENDBRANCH   9  12
ENDBRANCH   3   8
BRANCH   1  28
HETATM   28  N13 STI   202      15.332 101.409  44.520  1.00 45.65    -0.188 N 
HETATM   29  C9  STI   202      14.387 102.371  44.152  1.00 48.27     0.727 A 
HETATM   30  N8  STI   202      13.619 102.122  43.056  1.00 42.11    -0.062 NA
HETATM   31  N10 STI   202      14.219 103.552  44.857  1.00 45.18    -0.075 NA
HETATM   32  C7  STI   202      12.663 103.015  42.614  1.00 48.61     0.089 A 
HETATM   33  C12 STI   202      12.464 104.251  43.323  1.00 45.68     0.053 A 
HETATM   34  C11 STI   202      13.276 104.486  44.463  1.00 47.75     0.139 A 
HETATM   35  H13 STI   202      15.407 100.566  43.968  1.00  0.00     0.184 HD
BRANCH  32  36
HETATM   36  C5  STI   202      11.882 102.630  41.390  1.00 49.43     0.011 A 
HETATM   37  C4  STI   202      11.046 103.625  40.742  1.00 47.99     0.130 A 
HETATM   38  N3  STI   202      10.312 103.287  39.610  1.00 51.14    -0.272 NA
HETATM   39  C2  STI   202      10.335 102.006  39.048  1.00 52.94     0.116 A 
HETATM   40  C1  STI   202      11.139 100.972  39.636  1.00 54.02     0.020 A 
HETATM   41  C6  STI   202      11.914 101.290  40.814  1.00 52.26     0.017 A 
ENDBRANCH  32  36
ENDBRANCH   1  28
TORSDOF 6
ENDMDL
MODEL 4
REMARK VINA RESULT:     -10.3      6.722     12.643
REMARK  6 active torsions:
REMARK  status: ('A' for Active; 'I' for Inactive)
REMARK    1  A    between atoms: C5_5  and  C7_7 
REMARK       I    between atoms: C9_9  and  N13_13 
REMARK    2  A    between atoms: C14_14  and  N13_13 
REMARK    3  A    between atoms: C16_16  and  N21_21 
REMARK       I    between atoms: C22_22  and  N21_21 
REMARK    4  A    between atoms: C22_22  and  C23_23 
REMARK    5  A    between atoms: C27_26  and  C46_30 
REMARK    6  A    between atoms: C46_30  and  N48_31 
ROOT
HETATM    1  C14 STI   202      16.141 101.328  45.630  1.00 42.05     0.057 A 
HETATM    2  C15 STI   202      15.612 101.171  46.949  1.00 40.05     0.060 A 
HETATM    3  C16 STI   202      16.424 101.475  48.129  1.00 38.18     0.037 A 
HETATM    4  C17 STI   202      17.755 101.936  47.931  1.00 38.14     0.030 A 
HETATM    5  C18 STI   202      18.301 102.099  46.606  1.00 41.64     0.011 A 
HETATM    6  C19 STI   202      17.516 101.801  45.440  1.00 40.08    -0.035 A 
HETATM    7  C20 STI   202      18.174 101.995  44.054  1.00 40.72     0.050 C 
ENDROOT
BRANCH   3   8
HETATM    8  N21 STI   202      15.965 101.337  49.490  1.00 36.88    -0.323 N 
HETATM    9  C22 STI   202      15.904 100.196  50.267  1.00 34.79     0.256 C 
HETATM   10  O29 STI   202      16.029  99.063  49.843  1.00 40.42    -0.267 OA
HETATM   11  H21 STI   202      15.644 102.185  49.933  1.00  0.00     0.169 HD
BRANCH   9  12
HETATM   12  C23 STI   202      15.654 100.329  51.733  1.00 39.43     0.032 A 
HETATM   13  C25 STI   202      16.483 101.206  52.560  1.00 41.52     0.017 A 
HETATM   14  C26 STI   202      16.233 101.301  53.975  1.00 42.92     0.010 A 
HETATM   15  C27 STI   202      15.157 100.524  54.566  1.00 41.50    -0.033 A 
HETATM   16  C28 STI   202      14.348  99.668  53.724  1.00 41.95     0.010 A 
HETATM   17  C29 STI   202      14.586  99.568  52.337  1.00 42.07     0.017 A 
BRANCH  15  18
HETATM   18  C46 STI   202      14.843 100.556  56.066  1.00 42.63     0.273 C 
BRANCH  18  19
HETATM   19  N48 STI   202      13.625  99.832  56.538  1.00 46.81    -0.064 N 
HETATM   20  C49 STI   202      12.395 100.733  56.520  1.00 44.56     0.263 C 
HETATM   21  C50 STI   202      11.124  99.966  57.001  1.00 46.99     0.262 C 
HETATM   22  N51 STI   202      11.367  99.413  58.397  1.00 45.71    -0.072 N 
HETATM   23  C52 STI   202      12.589  98.508  58.420  1.00 42.59     0.262 C 
HETATM   24  C54 STI   202      10.144  98.747  58.876  1.00 47.72     0.269 C 
HETATM   25  H51 STI   202      11.552 100.195  59.010  1.00  0.00     0.279 HD
HETATM   26  C53 STI   202      13.841  99.270  57.915  1.00 41.12     0.263 C 
HETATM   27  H48 STI   202      13.457  99.061  55.909  1.00  0.00     0.280 HD
ENDBRANCH  18  19
ENDBRANCH  15  18
ENDBRANCH   9  12
ENDBRANCH   3   8
BRANCH   1  28
HETATM   28  N13 STI   202      15.320 101.014  44.534  1.00 45.65    -0.188 N 
HETATM   29  C9  STI   202      15.282  99.737  43.965  1.00 48.27     0.727 A 
HETATM   30  N8  STI   202      14.445  99.536  42.910  1.00 42.11    -0.062 NA
HETATM   31  N10 STI   202      16.055  98.691  44.440  1.00 45.18    -0.075 NA
HETATM   32  C7  STI   202      14.336  98.308  42.286  1.00 48.61     0.089 A 
HETATM   33  C12 STI   202      15.124  97.201  42.756  1.00 45.68     0.053 A 
HETATM   34  C11 STI   202      15.990  97.437  43.856  1.00 47.75     0.139 A 
HETATM   35  H13 STI   202      14.735 101.738  44.142  1.00  0.00     0.184 HD
BRANCH  32  36
HETATM   36  C5  STI   202      13.374  98.209  41.136  1.00 49.43     0.011 A 
HETATM   37  C4  STI   202      13.054  99.405  40.378  1.00 47.99     0.130 A 
HETATM   38  N3  STI   202      12.163  99.335  39.312  1.00 51.14    -0.272 NA
HETATM   39  C2  STI   202      11.543  98.144  38.921  1.00 52.94     0.116 A 
HETATM   40  C1  STI   202      11.812  96.922  39.626  1.00 54.02     0.020 A 
HETATM   41  C6  STI   202      12.734  96.960  40.739  1.00 52.26     0.017 A 
ENDBRANCH  32  36
ENDBRANCH   1  28
TORSDOF 6
ENDMDL
MODEL 5
REMARK VINA RESULT:     -10.2      6.758     12.398
REMARK  6 active torsions:
REMARK  status: ('A' for Active; 'I' for Inactive)
REMARK    1  A    between atoms: C5_5  and  C7_7 
REMARK       I    between atoms: C9_9  and  N13_13 
REMARK    2  A    between atoms: C14_14  and  N13_13 
REMARK    3  A    between atoms: C16_16  and  N21_21 
REMARK       I    between atoms: C22_22  and  N21_21 
REMARK    4  A    between atoms: C22_22  and  C23_23 
REMARK    5  A    between atoms: C27_26  and  C46_30 
REMARK    6  A    between atoms: C46_30  and  N48_31 
ROOT
HETATM    1  C14 STI   202      15.713 102.175  45.965  1.00 42.05     0.057 A 
HETATM    2  C15 STI   202      15.474 102.131  47.375  1.00 40.05     0.060 A 
HETATM    3  C16 STI   202      15.305 100.855  48.072  1.00 38.18     0.037 A 
HETATM    4  C17 STI   202      15.389  99.655  47.313  1.00 38.14     0.030 A 
HETATM    5  C18 STI   202      15.630  99.685  45.891  1.00 41.64     0.011 A 
HETATM    6  C19 STI   202      15.794 100.930  45.194  1.00 40.08    -0.035 A 
HETATM    7  C20 STI   202      16.043 100.880  43.668  1.00 40.72     0.050 C 
ENDROOT
BRANCH   3   8
HETATM    8  N21 STI   202      15.056 100.729  49.488  1.00 36.88    -0.323 N 
HETATM    9  C22 STI   202      15.657  99.879  50.396  1.00 34.79     0.256 C 
HETATM   10  O29 STI   202      16.354  98.929  50.097  1.00 40.42    -0.267 OA
HETATM   11  H21 STI   202      14.349 101.343  49.864  1.00  0.00     0.169 HD
BRANCH   9  12
HETATM   12  C23 STI   202      15.442 100.108  51.856  1.00 39.43     0.032 A 
HETATM   13  C25 STI   202      16.441 100.811  52.661  1.00 41.52     0.017 A 
HETATM   14  C26 STI   202      16.219 101.001  54.071  1.00 42.92     0.010 A 
HETATM   15  C27 STI   202      15.001 100.493  54.679  1.00 41.50    -0.033 A 
HETATM   16  C28 STI   202      14.026  99.806  53.859  1.00 41.95     0.010 A 
HETATM   17  C29 STI   202      14.236  99.614  52.477  1.00 42.07     0.017 A 
BRANCH  15  18
HETATM   18  C46 STI   202      14.702 100.638  56.175  1.00 42.63     0.273 C 
BRANCH  18  19
HETATM   19  N48 STI   202      13.489  99.953  56.713  1.00 46.81    -0.064 N 
HETATM   20  C49 STI   202      12.319 100.919  56.862  1.00 44.56     0.263 C 
HETATM   21  C50 STI   202      11.051 100.194  57.410  1.00 46.99     0.262 C 
HETATM   22  N51 STI   202      11.382  99.538  58.742  1.00 45.71    -0.072 N 
HETATM   23  C52 STI   202      12.544  98.568  58.599  1.00 42.59     0.262 C 
HETATM   24  C54 STI   202      10.168  98.911  59.291  1.00 47.72     0.269 C 
HETATM   25  H51 STI   202      11.667 100.267  59.382  1.00  0.00     0.279 HD
HETATM   26  C53 STI   202      13.791  99.291  58.027  1.00 41.12     0.263 C 
HETATM   27  H48 STI   202      13.219  99.235  56.056  1.00  0.00     0.280 HD
ENDBRANCH  18  19
ENDBRANCH  15  18
ENDBRANCH   9  12
ENDBRANCH   3   8
BRANCH   1  28
HETATM   28  N13 STI   202      15.858 103.428  45.346  1.00 45.65    -0.188 N 
HETATM   29  C9  STI   202      14.810 104.058  44.670  1.00 48.27     0.727 A 
HETATM   30  N8  STI   202      15.054 105.276  44.112  1.00 42.11    -0.062 NA
HETATM   31  N10 STI   202      13.551 103.491  44.560  1.00 45.18    -0.075 NA
HETATM   32  C7  STI   202      14.080 105.978  43.429  1.00 48.61     0.089 A 
HETATM   33  C12 STI   202      12.762 105.416  43.297  1.00 45.68     0.053 A 
HETATM   34  C11 STI   202      12.533 104.145  43.887  1.00 47.75     0.139 A 
HETATM   35  H13 STI   202      16.755 103.890  45.391  1.00  0.00     0.184 HD
BRANCH  32  36
HETATM   36  C5  STI   202      14.470 107.313  42.862  1.00 49.43     0.011 A 
HETATM   37  C4  STI   202      15.671 107.965  43.351  1.00 47.99     0.130 A 
HETATM   38  N3  STI   202      16.047 109.204  42.841  1.00 51.14    -0.272 NA
HETATM   39  C2  STI   202      15.310 109.872  41.857  1.00 52.94     0.116 A 
HETATM   40  C1  STI   202      14.111 109.286  41.328  1.00 54.02     0.020 A 
HETATM   41  C6  STI   202      13.692 108.000  41.836  1.00 52.26     0.017 A 
ENDBRANCH  32  36
ENDBRANCH   1  28
TORSDOF 6
ENDMDL
