MODEL 1
REMARK VINA RESULT:     -10.6      0.000      0.000
REMARK  6 active torsions:
REMARK  status: ('A' for Active; 'I' for Inactive)
REMARK    1  A    between atoms: C5_5  and  C7_7 
REMARK       I    between atoms: C9_9  and  N13_13 
REMARK    2  A    between atoms: C14_14  and  N13_13 
REMARK    3  A    between atoms: C16_16  and  N21_21 
REMARK       I    between atoms: C22_22  and  N21_21 
REMARK    4  A    between atoms: C22_22  and  C23_23 
REMARK    5  A    between atoms: C27_26  and  C46_30 
REMARK    6  A    between atoms: C46_30  and  N48_31 
ROOT
HETATM    1  C14 STI   202       9.357  92.840  63.517  1.00 42.05     0.057 A 
HETATM    2  C15 STI   202       9.660  93.901  62.607  1.00 40.05     0.060 A 
HETATM    3  C16 STI   202      10.779  94.812  62.854  1.00 38.18     0.037 A 
HETATM    4  C17 STI   202      11.564  94.614  64.023  1.00 38.14     0.030 A 
HETATM    5  C18 STI   202      11.271  93.548  64.949  1.00 41.64     0.011 A 
HETATM    6  C19 STI   202      10.174  92.649  64.721  1.00 40.08    -0.035 A 
HETATM    7  C20 STI   202       9.919  91.535  65.763  1.00 40.72     0.050 C 
ENDROOT
BRANCH   3   8
HETATM    8  N21 STI   202      11.142  95.906  61.988  1.00 36.88    -0.323 N 
HETATM    9  C22 STI   202      12.302  96.078  61.257  1.00 34.79     0.256 C 
HETATM   10  O29 STI   202      13.315  95.422  61.403  1.00 40.42    -0.267 OA
HETATM   11  H21 STI   202      10.459  96.644  61.904  1.00  0.00     0.169 HD
BRANCH   9  12
HETATM   12  C23 STI   202      12.353  97.148  60.216  1.00 39.43     0.032 A 
HETATM   13  C25 STI   202      11.275  98.129  60.094  1.00 41.52     0.017 A 
HETATM   14  C26 STI   202      11.338  99.139  59.069  1.00 42.92     0.010 A 
HETATM   15  C27 STI   202      12.477  99.172  58.167  1.00 41.50    -0.033 A 
HETATM   16  C28 STI   202      13.533  98.194  58.313  1.00 41.95     0.010 A 
HETATM   17  C29 STI   202      13.478  97.200  59.313  1.00 42.07     0.017 A 
BRANCH  15  18
HETATM   18  C46 STI   202      12.606 100.202  57.040  1.00 42.63     0.273 C 
BRANCH  18  19
HETATM   19  N48 STI   202      13.295  99.778  55.785  1.00 46.81    -0.064 N 
HETATM   20  C49 STI   202      14.612 100.520  55.589  1.00 44.56     0.263 C 
HETATM   21  C50 STI   202      15.333 100.062  54.283  1.00 46.99     0.262 C 
HETATM   22  N51 STI   202      14.409 100.280  53.095  1.00 45.71    -0.072 N 
HETATM   23  C52 STI   202      13.096  99.536  53.280  1.00 42.59     0.262 C 
HETATM   24  C54 STI   202      15.115  99.909  51.857  1.00 47.72     0.269 C 
HETATM   25  H51 STI   202      14.199 101.267  53.045  1.00  0.00     0.279 HD
HETATM   26  C53 STI   202      12.400  99.978  54.594  1.00 41.12     0.263 C 
HETATM   27  H48 STI   202      13.500  98.792  55.859  1.00  0.00     0.280 HD
ENDBRANCH  18  19
ENDBRANCH  15  18
ENDBRANCH   9  12
ENDBRANCH   3   8
BRANCH   1  28
HETATM   28  N13 STI   202       8.267  92.001  63.235  1.00 45.65    -0.188 N 
HETATM   29  C9  STI   202       7.006  92.187  63.812  1.00 48.27     0.727 A 
HETATM   30  N8  STI   202       6.014  91.322  63.463  1.00 42.11    -0.062 NA
HETATM   31  N10 STI   202       6.744  93.211  64.706  1.00 45.18    -0.075 NA
HETATM   32  C7  STI   202       4.736  91.428  63.977  1.00 48.61     0.089 A 
HETATM   33  C12 STI   202       4.432  92.482  64.908  1.00 45.68     0.053 A 
HETATM   34  C11 STI   202       5.483  93.370  65.255  1.00 47.75     0.139 A 
HETATM   35  H13 STI   202       8.398  91.234  62.592  1.00  0.00     0.184 HD
BRANCH  32  36
HETATM   36  C5  STI   202       3.727  90.417  63.514  1.00 49.43     0.011 A 
HETATM   37  C4  STI   202       2.900  89.742  64.497  1.00 47.99     0.130 A 
HETATM   38  N3  STI   202       1.961  88.800  64.089  1.00 51.14    -0.272 NA
HETATM   39  C2  STI   202       1.767  88.458  62.746  1.00 52.94     0.116 A 
HETATM   40  C1  STI   202       2.551  89.086  61.719  1.00 54.02     0.020 A 
HETATM   41  C6  STI   202       3.535  90.070  62.110  1.00 52.26     0.017 A 
ENDBRANCH  32  36
ENDBRANCH   1  28
TORSDOF 6
ENDMDL
MODEL 2
REMARK VINA RESULT:      -8.6      7.420     14.153
REMARK  6 active torsions:
REMARK  status: ('A' for Active; 'I' for Inactive)
REMARK    1  A    between atoms: C5_5  and  C7_7 
REMARK       I    between atoms: C9_9  and  N13_13 
REMARK    2  A    between atoms: C14_14  and  N13_13 
REMARK    3  A    between atoms: C16_16  and  N21_21 
REMARK       I    between atoms: C22_22  and  N21_21 
REMARK    4  A    between atoms: C22_22  and  C23_23 
REMARK    5  A    between atoms: C27_26  and  C46_30 
REMARK    6  A    between atoms: C46_30  and  N48_31 
ROOT
HETATM    1  C14 STI   202       8.461  90.911  63.752  1.00 42.05     0.057 A 
HETATM    2  C15 STI   202       8.813  90.429  65.052  1.00 40.05     0.060 A 
HETATM    3  C16 STI   202       8.820  91.321  66.212  1.00 38.18     0.037 A 
HETATM    4  C17 STI   202       8.463  92.684  66.017  1.00 38.14     0.030 A 
HETATM    5  C18 STI   202       8.105  93.184  64.712  1.00 41.64     0.011 A 
HETATM    6  C19 STI   202       8.097  92.319  63.564  1.00 40.08    -0.035 A 
HETATM    7  C20 STI   202       7.709  92.931  62.198  1.00 40.72     0.050 C 
ENDROOT
BRANCH   3   8
HETATM    8  N21 STI   202       9.169  90.911  67.550  1.00 36.88    -0.323 N 
HETATM    9  C22 STI   202       8.333  90.499  68.571  1.00 34.79     0.256 C 
HETATM   10  O29 STI   202       7.124  90.627  68.568  1.00 40.42    -0.267 OA
HETATM   11  H21 STI   202      10.154  90.928  67.771  1.00  0.00     0.169 HD
BRANCH   9  12
HETATM   12  C23 STI   202       8.927  89.860  69.782  1.00 39.43     0.032 A 
HETATM   13  C25 STI   202       9.670  88.603  69.681  1.00 41.52     0.017 A 
HETATM   14  C26 STI   202      10.216  87.997  70.868  1.00 42.92     0.010 A 
HETATM   15  C27 STI   202      10.025  88.644  72.155  1.00 41.50    -0.033 A 
HETATM   16  C28 STI   202       9.292  89.890  72.226  1.00 41.95     0.010 A 
HETATM   17  C29 STI   202       8.752  90.490  71.069  1.00 42.07     0.017 A 
BRANCH  15  18
HETATM   18  C46 STI   202      10.557  88.051  73.464  1.00 42.63     0.273 C 
BRANCH  18  19
HETATM   19  N48 STI   202      10.288  86.608  73.736  1.00 46.81    -0.064 N 
HETATM   20  C49 STI   202       8.794  86.306  73.735  1.00 44.56     0.263 C 
HETATM   21  C50 STI   202       8.521  84.793  74.004  1.00 46.99     0.262 C 
HETATM   22  N51 STI   202       9.151  84.397  75.331  1.00 45.71    -0.072 N 
HETATM   23  C52 STI   202      10.643  84.689  75.336  1.00 42.59     0.262 C 
HETATM   24  C54 STI   202       8.836  82.987  75.617  1.00 47.72     0.269 C 
HETATM   25  H51 STI   202       8.725  84.959  76.055  1.00  0.00     0.279 HD
HETATM   26  C53 STI   202      10.906  86.188  75.040  1.00 41.12     0.263 C 
HETATM   27  H48 STI   202      10.717  86.067  72.999  1.00  0.00     0.280 HD
ENDBRANCH  18  19
ENDBRANCH  15  18
ENDBRANCH   9  12
ENDBRANCH   3   8
BRANCH   1  28
HETATM   28  N13 STI   202       8.478  90.012  62.672  1.00 45.65    -0.188 N 
HETATM   29  C9  STI   202       7.394  89.185  62.365  1.00 48.27     0.727 A 
HETATM   30  N8  STI   202       7.511  88.357  61.291  1.00 42.11    -0.062 NA
HETATM   31  N10 STI   202       6.225  89.189  63.108  1.00 45.18    -0.075 NA
HETATM   32  C7  STI   202       6.492  87.507  60.908  1.00 48.61     0.089 A 
HETATM   33  C12 STI   202       5.264  87.488  61.658  1.00 45.68     0.053 A 
HETATM   34  C11 STI   202       5.168  88.360  62.773  1.00 47.75     0.139 A 
HETATM   35  H13 STI   202       9.306  89.963  62.095  1.00  0.00     0.184 HD
BRANCH  32  36
HETATM   36  C5  STI   202       6.737  86.644  59.703  1.00 49.43     0.011 A 
HETATM   37  C4  STI   202       6.655  87.237  58.380  1.00 47.99     0.130 A 
HETATM   38  N3  STI   202       6.876  86.454  57.252  1.00 51.14    -0.272 NA
HETATM   39  C2  STI   202       7.180  85.091  57.324  1.00 52.94     0.116 A 
HETATM   40  C1  STI   202       7.277  84.438  58.600  1.00 54.02     0.020 A 
HETATM   41  C6  STI   202       7.054  85.223  59.792  1.00 52.26     0.017 A 
ENDBRANCH  32  36
ENDBRANCH   1  28
TORSDOF 6
ENDMDL
MODEL 3
REMARK VINA RESULT:      -8.4      7.457     15.738
REMARK  6 active torsions:
REMARK  status: ('A' for Active; 'I' for Inactive)
REMARK    1  A    between atoms: C5_5  and  C7_7 
REMARK       I    between atoms: C9_9  and  N13_13 
REMARK    2  A    between atoms: C14_14  and  N13_13 
REMARK    3  A    between atoms: C16_16  and  N21_21 
REMARK       I    between atoms: C22_22  and  N21_21 
REMARK    4  A    between atoms: C22_22  and  C23_23 
REMARK    5  A    between atoms: C27_26  and  C46_30 
REMARK    6  A    between atoms: C46_30  and  N48_31 
ROOT
HETATM    1  C14 STI   202       8.671  91.214  65.580  1.00 42.05     0.057 A 
HETATM    2  C15 STI   202       8.920  90.209  66.566  1.00 40.05     0.060 A 
HETATM    3  C16 STI   202       7.920  89.184  66.869  1.00 38.18     0.037 A 
HETATM    4  C17 STI   202       6.690  89.210  66.155  1.00 38.14     0.030 A 
HETATM    5  C18 STI   202       6.425  90.218  65.159  1.00 41.64     0.011 A 
HETATM    6  C19 STI   202       7.397  91.231  64.853  1.00 40.08    -0.035 A 
HETATM    7  C20 STI   202       7.037  92.281  63.776  1.00 40.72     0.050 C 
ENDROOT
BRANCH   3   8
HETATM    8  N21 STI   202       8.095  88.143  67.852  1.00 36.88    -0.323 N 
HETATM    9  C22 STI   202       8.567  86.857  67.670  1.00 34.79     0.256 C 
HETATM   10  O29 STI   202       8.707  86.318  66.589  1.00 40.42    -0.267 OA
HETATM   11  H21 STI   202       7.840  88.385  68.798  1.00  0.00     0.169 HD
BRANCH   9  12
HETATM   12  C23 STI   202       8.925  86.039  68.867  1.00 39.43     0.032 A 
HETATM   13  C25 STI   202       8.133  84.867  69.240  1.00 41.52     0.017 A 
HETATM   14  C26 STI   202       8.487  84.106  70.410  1.00 42.92     0.010 A 
HETATM   15  C27 STI   202       9.633  84.511  71.207  1.00 41.50    -0.033 A 
HETATM   16  C28 STI   202      10.404  85.671  70.813  1.00 41.95     0.010 A 
HETATM   17  C29 STI   202      10.062  86.423  69.669  1.00 42.07     0.017 A 
BRANCH  15  18
HETATM   18  C46 STI   202      10.060  83.766  72.476  1.00 42.63     0.273 C 
BRANCH  18  19
HETATM   19  N48 STI   202      11.376  83.060  72.460  1.00 46.81    -0.064 N 
HETATM   20  C49 STI   202      11.222  81.592  72.081  1.00 44.56     0.263 C 
HETATM   21  C50 STI   202      12.602  80.865  72.051  1.00 46.99     0.262 C 
HETATM   22  N51 STI   202      13.273  81.004  73.409  1.00 45.71    -0.072 N 
HETATM   23  C52 STI   202      13.437  82.467  73.790  1.00 42.59     0.262 C 
HETATM   24  C54 STI   202      14.545  80.261  73.401  1.00 47.72     0.269 C 
HETATM   25  H51 STI   202      12.671  80.573  74.096  1.00  0.00     0.279 HD
HETATM   26  C53 STI   202      12.064  83.187  73.790  1.00 41.12     0.263 C 
HETATM   27  H48 STI   202      11.959  83.503  71.764  1.00  0.00     0.280 HD
ENDBRANCH  18  19
ENDBRANCH  15  18
ENDBRANCH   9  12
ENDBRANCH   3   8
BRANCH   1  28
HETATM   28  N13 STI   202       9.663  92.178  65.335  1.00 45.65    -0.188 N 
HETATM   29  C9  STI   202      10.877  91.866  64.715  1.00 48.27     0.727 A 
HETATM   30  N8  STI   202      11.767  92.877  64.516  1.00 42.11    -0.062 NA
HETATM   31  N10 STI   202      11.190  90.582  64.302  1.00 45.18    -0.075 NA
HETATM   32  C7  STI   202      12.990  92.667  63.908  1.00 48.61     0.089 A 
HETATM   33  C12 STI   202      13.345  91.345  63.467  1.00 45.68     0.053 A 
HETATM   34  C11 STI   202      12.400  90.308  63.688  1.00 47.75     0.139 A 
HETATM   35  H13 STI   202       9.492  93.133  65.616  1.00  0.00     0.184 HD
BRANCH  32  36
HETATM   36  C5  STI   202      13.884  93.862  63.740  1.00 49.43     0.011 A 
HETATM   37  C4  STI   202      13.313  95.193  63.844  1.00 47.99     0.130 A 
HETATM   38  N3  STI   202      14.123  96.312  63.687  1.00 51.14    -0.272 NA
HETATM   39  C2  STI   202      15.495  96.223  63.429  1.00 52.94     0.116 A 
HETATM   40  C1  STI   202      16.127  94.939  63.312  1.00 54.02     0.020 A 
HETATM   41  C6  STI   202      15.313  93.755  63.470  1.00 52.26     0.017 A 
ENDBRANCH  32  36
ENDBRANCH   1  28
TORSDOF 6
ENDMDL
MODEL 4
REMARK VINA RESULT:      -8.3      6.917     14.253
REMARK  6 active torsions:
REMARK  status: ('A' for Active; 'I' for Inactive)
REMARK    1  A    between atoms: C5_5  and  C7_7 
REMARK       I    between atoms: C9_9  and  N13_13 
REMARK    2  A    between atoms: C14_14  and  N13_13 
REMARK    3  A    between atoms: C16_16  and  N21_21 
REMARK       I    between atoms: C22_22  and  N21_21 
REMARK    4  A    between atoms: C22_22  and  C23_23 
REMARK    5  A    between atoms: C27_26  and  C46_30 
REMARK    6  A    between atoms: C46_30  and  N48_31 
ROOT
HETATM    1  C14 STI   202      10.617  91.762  64.673  1.00 42.05     0.057 A 
HETATM    2  C15 STI   202      10.372  90.728  65.630  1.00 40.05     0.060 A 
HETATM    3  C16 STI   202      11.335  90.440  66.695  1.00 38.18     0.037 A 
HETATM    4  C17 STI   202      12.522  91.220  66.759  1.00 38.14     0.030 A 
HETATM    5  C18 STI   202      12.782  92.267  65.802  1.00 41.64     0.011 A 
HETATM    6  C19 STI   202      11.848  92.557  64.750  1.00 40.08    -0.035 A 
HETATM    7  C20 STI   202      12.201  93.691  63.758  1.00 40.72     0.050 C 
ENDROOT
BRANCH   3   8
HETATM    8  N21 STI   202      11.161  89.411  67.691  1.00 36.88    -0.323 N 
HETATM    9  C22 STI   202      10.087  89.200  68.534  1.00 34.79     0.256 C 
HETATM   10  O29 STI   202       9.190  90.000  68.724  1.00 40.42    -0.267 OA
HETATM   11  H21 STI   202      11.925  88.758  67.784  1.00  0.00     0.169 HD
BRANCH   9  12
HETATM   12  C23 STI   202       9.999  87.917  69.292  1.00 39.43     0.032 A 
HETATM   13  C25 STI   202       9.460  86.710  68.666  1.00 41.52     0.017 A 
HETATM   14  C26 STI   202       9.368  85.489  69.425  1.00 42.92     0.010 A 
HETATM   15  C27 STI   202       9.816  85.471  70.808  1.00 41.50    -0.033 A 
HETATM   16  C28 STI   202      10.352  86.678  71.401  1.00 41.95     0.010 A 
HETATM   17  C29 STI   202      10.444  87.878  70.665  1.00 42.07     0.017 A 
BRANCH  15  18
HETATM   18  C46 STI   202       9.732  84.218  71.686  1.00 42.63     0.273 C 
BRANCH  18  19
HETATM   19  N48 STI   202      10.717  84.081  72.799  1.00 46.81    -0.064 N 
HETATM   20  C49 STI   202      11.756  83.006  72.500  1.00 44.56     0.263 C 
HETATM   21  C50 STI   202      12.791  82.877  73.661  1.00 46.99     0.262 C 
HETATM   22  N51 STI   202      12.057  82.572  74.958  1.00 45.71    -0.072 N 
HETATM   23  C52 STI   202      11.023  83.644  75.266  1.00 42.59     0.262 C 
HETATM   24  C54 STI   202      13.038  82.385  76.039  1.00 47.72     0.269 C 
HETATM   25  H51 STI   202      11.565  81.698  74.835  1.00  0.00     0.279 HD
HETATM   26  C53 STI   202      10.017  83.784  74.095  1.00 41.12     0.263 C 
HETATM   27  H48 STI   202      11.200  84.962  72.900  1.00  0.00     0.280 HD
ENDBRANCH  18  19
ENDBRANCH  15  18
ENDBRANCH   9  12
ENDBRANCH   3   8
BRANCH   1  28
HETATM   28  N13 STI   202       9.664  91.990  63.667  1.00 45.65    -0.188 N 
HETATM   29  C9  STI   202       8.359  92.404  63.949  1.00 48.27     0.727 A 
HETATM   30  N8  STI   202       7.515  92.605  62.899  1.00 42.11    -0.062 NA
HETATM   31  N10 STI   202       7.910  92.615  65.242  1.00 45.18    -0.075 NA
HETATM   32  C7  STI   202       6.209  93.018  63.077  1.00 48.61     0.089 A 
HETATM   33  C12 STI   202       5.713  93.247  64.408  1.00 45.68     0.053 A 
HETATM   34  C11 STI   202       6.612  93.030  65.485  1.00 47.75     0.139 A 
HETATM   35  H13 STI   202       9.932  91.849  62.703  1.00  0.00     0.184 HD
BRANCH  32  36
HETATM   36  C5  STI   202       5.378  93.210  61.841  1.00 49.43     0.011 A 
HETATM   37  C4  STI   202       4.534  94.387  61.732  1.00 47.99     0.130 A 
HETATM   38  N3  STI   202       3.754  94.581  60.597  1.00 51.14    -0.272 NA
HETATM   39  C2  STI   202       3.737  93.679  59.528  1.00 52.94     0.116 A 
HETATM   40  C1  STI   202       4.546  92.493  59.567  1.00 54.02     0.020 A 
HETATM   41  C6  STI   202       5.368  92.262  60.733  1.00 52.26     0.017 A 
ENDBRANCH  32  36
ENDBRANCH   1  28
TORSDOF 6
ENDMDL
MODEL 5
REMARK VINA RESULT:      -8.3      7.213     15.527
REMARK  6 active torsions:
REMARK  status: ('A' for Active; 'I' for Inactive)
REMARK    1  A    between atoms: C5_5  and  C7_7 
REMARK       I    between atoms: C9_9  and  N13_13 
REMARK    2  A    between atoms: C14_14  and  N13_13 
REMARK    3  A    between atoms: C16_16  and  N21_21 
REMARK       I    between atoms: C22_22  and  N21_21 
REMARK    4  A    between atoms: C22_22  and  C23_23 
REMARK    5  A    between atoms: C27_26  and  C46_30 
REMARK    6  A    between atoms: C46_30  and  N48_31 
ROOT
HETATM    1  C14 STI   202       6.490  90.365  61.506  1.00 42.05     0.057 A 
HETATM    2  C15 STI   202       5.836  89.106  61.687  1.00 40.05     0.060 A 
HETATM    3  C16 STI   202       4.470  88.889  61.207  1.00 38.18     0.037 A 
HETATM    4  C17 STI   202       3.807  89.962  60.550  1.00 38.14     0.030 A 
HETATM    5  C18 STI   202       4.455  91.236  60.360  1.00 41.64     0.011 A 
HETATM    6  C19 STI   202       5.794  91.464  60.829  1.00 40.08    -0.035 A 
HETATM    7  C20 STI   202       6.418  92.860  60.594  1.00 40.72     0.050 C 
ENDROOT
BRANCH   3   8
HETATM    8  N21 STI   202       3.742  87.652  61.358  1.00 36.88    -0.323 N 
HETATM    9  C22 STI   202       4.064  86.399  60.873  1.00 34.79     0.256 C 
HETATM   10  O29 STI   202       4.921  86.180  60.038  1.00 40.42    -0.267 OA
HETATM   11  H21 STI   202       2.885  87.709  61.887  1.00  0.00     0.169 HD
BRANCH   9  12
HETATM   12  C23 STI   202       3.315  85.210  61.378  1.00 39.43     0.032 A 
HETATM   13  C25 STI   202       3.942  84.262  62.299  1.00 41.52     0.017 A 
HETATM   14  C26 STI   202       3.204  83.113  62.756  1.00 42.92     0.010 A 
HETATM   15  C27 STI   202       1.841  82.909  62.297  1.00 41.50    -0.033 A 
HETATM   16  C28 STI   202       1.242  83.865  61.390  1.00 41.95     0.010 A 
HETATM   17  C29 STI   202       1.958  84.993  60.936  1.00 42.07     0.017 A 
BRANCH  15  18
HETATM   18  C46 STI   202       0.999  81.701  62.721  1.00 42.63     0.273 C 
BRANCH  18  19
HETATM   19  N48 STI   202       1.258  81.110  64.068  1.00 46.81    -0.064 N 
HETATM   20  C49 STI   202       0.861  79.639  64.121  1.00 44.56     0.263 C 
HETATM   21  C50 STI   202       1.148  79.025  65.526  1.00 46.99     0.262 C 
HETATM   22  N51 STI   202       0.404  79.823  66.586  1.00 45.71    -0.072 N 
HETATM   23  C52 STI   202       0.800  81.290  66.543  1.00 42.59     0.262 C 
HETATM   24  C54 STI   202       0.622  79.202  67.904  1.00 47.72     0.269 C 
HETATM   25  H51 STI   202      -0.583  79.765  66.379  1.00  0.00     0.279 HD
HETATM   26  C53 STI   202       0.538  81.885  65.136  1.00 41.12     0.263 C 
HETATM   27  H48 STI   202       2.249  81.173  64.251  1.00  0.00     0.280 HD
ENDBRANCH  18  19
ENDBRANCH  15  18
ENDBRANCH   9  12
ENDBRANCH   3   8
BRANCH   1  28
HETATM   28  N13 STI   202       7.798  90.521  61.994  1.00 45.65    -0.188 N 
HETATM   29  C9  STI   202       8.068  90.902  63.312  1.00 48.27     0.727 A 
HETATM   30  N8  STI   202       9.372  91.016  63.686  1.00 42.11    -0.062 NA
HETATM   31  N10 STI   202       7.063  91.158  64.230  1.00 45.18    -0.075 NA
HETATM   32  C7  STI   202       9.737  91.383  64.967  1.00 48.61     0.089 A 
HETATM   33  C12 STI   202       8.717  91.655  65.945  1.00 45.68     0.053 A 
HETATM   34  C11 STI   202       7.366  91.531  65.529  1.00 47.75     0.139 A 
HETATM   35  H13 STI   202       8.573  90.350  61.369  1.00  0.00     0.184 HD
BRANCH  32  36
HETATM   36  C5  STI   202      11.208  91.469  65.260  1.00 49.43     0.011 A 
HETATM   37  C4  STI   202      12.056  92.267  64.393  1.00 47.99     0.130 A 
HETATM   38  N3  STI   202      13.421  92.357  64.646  1.00 51.14    -0.272 NA
HETATM   39  C2  STI   202      14.036  91.703  65.718  1.00 52.94     0.116 A 
HETATM   40  C1  STI   202      13.259  90.895  66.617  1.00 54.02     0.020 A 
HETATM   41  C6  STI   202      11.837  90.781  66.382  1.00 52.26     0.017 A 
ENDBRANCH  32  36
ENDBRANCH   1  28
TORSDOF 6
ENDMDL
MODEL 6
REMARK VINA RESULT:      -8.3      7.779     14.700
REMARK  6 active torsions:
REMARK  status: ('A' for Active; 'I' for Inactive)
REMARK    1  A    between atoms: C5_5  and  C7_7 
REMARK       I    between atoms: C9_9  and  N13_13 
REMARK    2  A    between atoms: C14_14  and  N13_13 
REMARK    3  A    between atoms: C16_16  and  N21_21 
REMARK       I    between atoms: C22_22  and  N21_21 
REMARK    4  A    between atoms: C22_22  and  C23_23 
REMARK    5  A    between atoms: C27_26  and  C46_30 
REMARK    6  A    between atoms: C46_30  and  N48_31 
ROOT
HETATM    1  C14 STI   202       9.037  89.872  64.334  1.00 42.05     0.057 A 
HETATM    2  C15 STI   202       9.157  89.151  65.563  1.00 40.05     0.060 A 
HETATM    3  C16 STI   202       9.255  89.854  66.844  1.00 38.18     0.037 A 
HETATM    4  C17 STI   202       9.223  91.275  66.838  1.00 38.14     0.030 A 
HETATM    5  C18 STI   202       9.102  92.015  65.606  1.00 41.64     0.011 A 
HETATM    6  C19 STI   202       9.008  91.338  64.342  1.00 40.08    -0.035 A 
HETATM    7  C20 STI   202       8.887  92.202  63.064  1.00 40.72     0.050 C 
ENDROOT
BRANCH   3   8
HETATM    8  N21 STI   202       9.384  89.198  68.123  1.00 36.88    -0.323 N 
HETATM    9  C22 STI   202       8.404  88.583  68.879  1.00 34.79     0.256 C 
HETATM   10  O29 STI   202       7.209  88.692  68.682  1.00 40.42    -0.267 OA
HETATM   11  H21 STI   202      10.313  89.186  68.517  1.00  0.00     0.169 HD
BRANCH   9  12
HETATM   12  C23 STI   202       8.807  87.731  70.036  1.00 39.43     0.032 A 
HETATM   13  C25 STI   202       9.712  88.242  71.066  1.00 41.52     0.017 A 
HETATM   14  C26 STI   202      10.102  87.392  72.162  1.00 42.92     0.010 A 
HETATM   15  C27 STI   202       9.588  86.035  72.233  1.00 41.50    -0.033 A 
HETATM   16  C28 STI   202       8.689  85.556  71.205  1.00 41.95     0.010 A 
HETATM   17  C29 STI   202       8.304  86.381  70.127  1.00 42.07     0.017 A 
BRANCH  15  18
HETATM   18  C46 STI   202       9.972  85.065  73.356  1.00 42.63     0.273 C 
BRANCH  18  19
HETATM   19  N48 STI   202      11.100  84.120  73.104  1.00 46.81    -0.064 N 
HETATM   20  C49 STI   202      10.623  82.848  72.413  1.00 44.56     0.263 C 
HETATM   21  C50 STI   202      11.809  81.871  72.140  1.00 46.99     0.262 C 
HETATM   22  N51 STI   202      12.504  81.544  73.453  1.00 45.71    -0.072 N 
HETATM   23  C52 STI   202      12.989  82.808  74.145  1.00 42.59     0.262 C 
HETATM   24  C54 STI   202      13.581  80.571  73.204  1.00 47.72     0.269 C 
HETATM   25  H51 STI   202      11.826  81.103  74.059  1.00  0.00     0.279 HD
HETATM   26  C53 STI   202      11.809  83.784  74.386  1.00 41.12     0.263 C 
HETATM   27  H48 STI   202      11.761  84.578  72.494  1.00  0.00     0.280 HD
ENDBRANCH  18  19
ENDBRANCH  15  18
ENDBRANCH   9  12
ENDBRANCH   3   8
BRANCH   1  28
HETATM   28  N13 STI   202       8.955  89.148  63.133  1.00 45.65    -0.188 N 
HETATM   29  C9  STI   202       7.757  88.598  62.668  1.00 48.27     0.727 A 
HETATM   30  N8  STI   202       7.785  87.921  61.486  1.00 42.11    -0.062 NA
HETATM   31  N10 STI   202       6.564  88.724  63.360  1.00 45.18    -0.075 NA
HETATM   32  C7  STI   202       6.651  87.347  60.944  1.00 48.61     0.089 A 
HETATM   33  C12 STI   202       5.397  87.461  61.639  1.00 45.68     0.053 A 
HETATM   34  C11 STI   202       5.394  88.170  62.868  1.00 47.75     0.139 A 
HETATM   35  H13 STI   202       9.794  89.020  62.585  1.00  0.00     0.184 HD
BRANCH  32  36
HETATM   36  C5  STI   202       6.808  86.631  59.633  1.00 49.43     0.011 A 
HETATM   37  C4  STI   202       6.681  87.382  58.397  1.00 47.99     0.130 A 
HETATM   38  N3  STI   202       6.819  86.737  57.173  1.00 51.14    -0.272 NA
HETATM   39  C2  STI   202       7.079  85.367  57.066  1.00 52.94     0.116 A 
HETATM   40  C1  STI   202       7.216  84.560  58.246  1.00 54.02     0.020 A 
HETATM   41  C6  STI   202       7.078  85.201  59.535  1.00 52.26     0.017 A 
ENDBRANCH  32  36
ENDBRANCH   1  28
TORSDOF 6
ENDMDL
MODEL 7
REMARK VINA RESULT:      -8.2      7.424     14.792
REMARK  6 active torsions:
REMARK  status: ('A' for Active; 'I' for Inactive)
REMARK    1  A    between atoms: C5_5  and  C7_7 
REMARK       I    between atoms: C9_9  and  N13_13 
REMARK    2  A    between atoms: C14_14  and  N13_13 
REMARK    3  A    between atoms: C16_16  and  N21_21 
REMARK       I    between atoms: C22_22  and  N21_21 
REMARK    4  A    between atoms: C22_22  and  C23_23 
REMARK    5  A    between atoms: C27_26  and  C46_30 
REMARK    6  A    between atoms: C46_30  and  N48_31 
ROOT
HETATM    1  C14 STI   202       9.218  89.963  66.684  1.00 42.05     0.057 A 
HETATM    2  C15 STI   202       9.438  90.150  68.085  1.00 40.05     0.060 A 
HETATM    3  C16 STI   202       9.056  89.121  69.054  1.00 38.18     0.037 A 
HETATM    4  C17 STI   202       8.462  87.924  68.567  1.00 38.14     0.030 A 
HETATM    5  C18 STI   202       8.234  87.722  67.158  1.00 41.64     0.011 A 
HETATM    6  C19 STI   202       8.601  88.725  66.197  1.00 40.08    -0.035 A 
HETATM    7  C20 STI   202       8.319  88.437  64.703  1.00 40.72     0.050 C 
ENDROOT
BRANCH   3   8
HETATM    8  N21 STI   202       9.241  89.239  70.480  1.00 36.88    -0.323 N 
HETATM    9  C22 STI   202      10.043  88.480  71.311  1.00 34.79     0.256 C 
HETATM   10  O29 STI   202      10.565  87.428  70.995  1.00 40.42    -0.267 OA
HETATM   11  H21 STI   202       8.715  89.973  70.931  1.00  0.00     0.169 HD
BRANCH   9  12
HETATM   12  C23 STI   202      10.293  88.949  72.706  1.00 39.43     0.032 A 
HETATM   13  C25 STI   202       9.275  89.703  73.439  1.00 41.52     0.017 A 
HETATM   14  C26 STI   202       9.548  90.161  74.776  1.00 42.92     0.010 A 
HETATM   15  C27 STI   202      10.835  89.867  75.385  1.00 41.50    -0.033 A 
HETATM   16  C28 STI   202      11.822  89.114  74.640  1.00 41.95     0.010 A 
HETATM   17  C29 STI   202      11.563  88.663  73.329  1.00 42.07     0.017 A 
BRANCH  15  18
HETATM   18  C46 STI   202      11.208  90.338  76.794  1.00 42.63     0.273 C 
BRANCH  18  19
HETATM   19  N48 STI   202      12.149  91.491  76.918  1.00 46.81    -0.064 N 
HETATM   20  C49 STI   202      11.981  92.478  75.768  1.00 44.56     0.263 C 
HETATM   21  C50 STI   202      12.956  93.687  75.912  1.00 46.99     0.262 C 
HETATM   22  N51 STI   202      14.387  93.175  75.978  1.00 45.71    -0.072 N 
HETATM   23  C52 STI   202      14.563  92.194  77.127  1.00 42.59     0.262 C 
HETATM   24  C54 STI   202      15.311  94.320  76.046  1.00 47.72     0.269 C 
HETATM   25  H51 STI   202      14.576  92.678  75.119  1.00  0.00     0.279 HD
HETATM   26  C53 STI   202      13.571  91.011  76.991  1.00 41.12     0.263 C 
HETATM   27  H48 STI   202      11.938  91.975  77.778  1.00  0.00     0.280 HD
ENDBRANCH  18  19
ENDBRANCH  15  18
ENDBRANCH   9  12
ENDBRANCH   3   8
BRANCH   1  28
HETATM   28  N13 STI   202       9.596  90.987  65.800  1.00 45.65    -0.188 N 
HETATM   29  C9  STI   202      10.931  91.343  65.590  1.00 48.27     0.727 A 
HETATM   30  N8  STI   202      11.190  92.344  64.703  1.00 42.11    -0.062 NA
HETATM   31  N10 STI   202      11.978  90.714  66.243  1.00 45.18    -0.075 NA
HETATM   32  C7  STI   202      12.477  92.762  64.427  1.00 48.61     0.089 A 
HETATM   33  C12 STI   202      13.587  92.128  65.088  1.00 45.68     0.053 A 
HETATM   34  C11 STI   202      13.290  91.089  66.007  1.00 47.75     0.139 A 
HETATM   35  H13 STI   202       8.875  91.484  65.297  1.00  0.00     0.184 HD
BRANCH  32  36
HETATM   36  C5  STI   202      12.635  93.872  63.427  1.00 49.43     0.011 A 
HETATM   37  C4  STI   202      13.904  94.028  62.739  1.00 47.99     0.130 A 
HETATM   38  N3  STI   202      14.072  95.052  61.813  1.00 51.14    -0.272 NA
HETATM   39  C2  STI   202      13.058  95.964  61.501  1.00 52.94     0.116 A 
HETATM   40  C1  STI   202      11.777  95.870  62.144  1.00 54.02     0.020 A 
HETATM   41  C6  STI   202      11.570  94.817  63.112  1.00 52.26     0.017 A 
ENDBRANCH  32  36
ENDBRANCH   1  28
TORSDOF 6
ENDMDL
