MODEL 1
REMARK VINA RESULT:     -13.9      0.000      0.000
REMARK  6 active torsions:
REMARK  status: ('A' for Active; 'I' for Inactive)
REMARK    1  A    between atoms: C5_5  and  C7_7 
REMARK       I    between atoms: C9_9  and  N13_13 
REMARK    2  A    between atoms: C14_14  and  N13_13 
REMARK    3  A    between atoms: C16_16  and  N21_21 
REMARK       I    between atoms: C22_22  and  N21_21 
REMARK    4  A    between atoms: C22_22  and  C23_23 
REMARK    5  A    between atoms: C27_26  and  C46_30 
REMARK    6  A    between atoms: C46_30  and  N48_31 
ROOT
HETATM    1  C14 STI   202      12.317 100.021  58.154  1.00 42.05     0.057 A 
HETATM    2  C15 STI   202      12.444  98.842  58.954  1.00 40.05     0.060 A 
HETATM    3  C16 STI   202      11.471  98.533  60.003  1.00 38.18     0.037 A 
HETATM    4  C17 STI   202      10.390  99.434  60.207  1.00 38.14     0.030 A 
HETATM    5  C18 STI   202      10.249 100.626  59.408  1.00 41.64     0.011 A 
HETATM    6  C19 STI   202      11.198 100.943  58.378  1.00 40.08    -0.035 A 
HETATM    7  C20 STI   202      10.983 102.244  57.568  1.00 40.72     0.050 C 
ENDROOT
BRANCH   3   8
HETATM    8  N21 STI   202      11.535  97.368  60.853  1.00 36.88    -0.323 N 
HETATM    9  C22 STI   202      12.506  96.386  60.897  1.00 34.79     0.256 C 
HETATM   10  O29 STI   202      13.370  96.230  60.056  1.00 40.42    -0.267 OA
HETATM   11  H21 STI   202      10.769  97.256  61.500  1.00  0.00     0.169 HD
BRANCH   9  12
HETATM   12  C23 STI   202      12.513  95.423  62.038  1.00 39.43     0.032 A 
HETATM   13  C25 STI   202      13.725  94.683  62.389  1.00 41.52     0.017 A 
HETATM   14  C26 STI   202      13.700  93.745  63.482  1.00 42.92     0.010 A 
HETATM   15  C27 STI   202      12.468  93.546  64.226  1.00 41.50    -0.033 A 
HETATM   16  C28 STI   202      11.284  94.296  63.862  1.00 41.95     0.010 A 
HETATM   17  C29 STI   202      11.299  95.216  62.792  1.00 42.07     0.017 A 
BRANCH  15  18
HETATM   18  C46 STI   202      12.356  92.552  65.387  1.00 42.63     0.273 C 
BRANCH  18  19
HETATM   19  N48 STI   202      11.157  91.663  65.429  1.00 46.81    -0.064 N 
HETATM   20  C49 STI   202      11.134  90.813  66.695  1.00 44.56     0.263 C 
HETATM   21  C50 STI   202       9.871  89.897  66.740  1.00 46.99     0.262 C 
HETATM   22  N51 STI   202       9.843  89.017  65.499  1.00 45.71    -0.072 N 
HETATM   23  C52 STI   202       9.860  89.859  64.233  1.00 42.59     0.262 C 
HETATM   24  C54 STI   202       8.688  88.107  65.575  1.00 47.72     0.269 C 
HETATM   25  H51 STI   202      10.680  88.452  65.504  1.00  0.00     0.279 HD
HETATM   26  C53 STI   202      11.102  90.786  64.210  1.00 41.12     0.263 C 
HETATM   27  H48 STI   202      10.335  92.248  65.431  1.00  0.00     0.280 HD
ENDBRANCH  18  19
ENDBRANCH  15  18
ENDBRANCH   9  12
ENDBRANCH   3   8
BRANCH   1  28
HETATM   28  N13 STI   202      13.284 100.273  57.167  1.00 45.65    -0.188 N 
HETATM   29  C9  STI   202      13.051 100.034  55.809  1.00 48.27     0.727 A 
HETATM   30  N8  STI   202      14.052 100.322  54.932  1.00 42.11    -0.062 NA
HETATM   31  N10 STI   202      11.850  99.528  55.341  1.00 45.18    -0.075 NA
HETATM   32  C7  STI   202      13.913 100.124  53.572  1.00 48.61     0.089 A 
HETATM   33  C12 STI   202      12.678  99.600  53.054  1.00 45.68     0.053 A 
HETATM   34  C11 STI   202      11.651  99.308  53.988  1.00 47.75     0.139 A 
HETATM   35  H13 STI   202      14.181 100.641  57.448  1.00  0.00     0.184 HD
BRANCH  32  36
HETATM   36  C5  STI   202      15.087 100.483  52.706  1.00 49.43     0.011 A 
HETATM   37  C4  STI   202      16.093 101.395  53.221  1.00 47.99     0.130 A 
HETATM   38  N3  STI   202      17.185 101.742  52.433  1.00 51.14    -0.272 NA
HETATM   39  C2  STI   202      17.371 101.249  51.138  1.00 52.94     0.116 A 
HETATM   40  C1  STI   202      16.416 100.344  50.563  1.00 54.02     0.020 A 
HETATM   41  C6  STI   202      15.269  99.962  51.356  1.00 52.26     0.017 A 
ENDBRANCH  32  36
ENDBRANCH   1  28
TORSDOF 6
ENDMDL
MODEL 2
REMARK VINA RESULT:     -10.7      3.666     13.467
REMARK  6 active torsions:
REMARK  status: ('A' for Active; 'I' for Inactive)
REMARK    1  A    between atoms: C5_5  and  C7_7 
REMARK       I    between atoms: C9_9  and  N13_13 
REMARK    2  A    between atoms: C14_14  and  N13_13 
REMARK    3  A    between atoms: C16_16  and  N21_21 
REMARK       I    between atoms: C22_22  and  N21_21 
REMARK    4  A    between atoms: C22_22  and  C23_23 
REMARK    5  A    between atoms: C27_26  and  C46_30 
REMARK    6  A    between atoms: C46_30  and  N48_31 
ROOT
HETATM    1  C14 STI   202       9.385  92.721  63.625  1.00 42.05     0.057 A 
HETATM    2  C15 STI   202       9.687  93.786  62.719  1.00 40.05     0.060 A 
HETATM    3  C16 STI   202      10.789  94.713  62.983  1.00 38.18     0.037 A 
HETATM    4  C17 STI   202      11.558  94.527  64.165  1.00 38.14     0.030 A 
HETATM    5  C18 STI   202      11.265  93.458  65.087  1.00 41.64     0.011 A 
HETATM    6  C19 STI   202      10.185  92.543  64.842  1.00 40.08    -0.035 A 
HETATM    7  C20 STI   202       9.929  91.427  65.882  1.00 40.72     0.050 C 
ENDROOT
BRANCH   3   8
HETATM    8  N21 STI   202      11.150  95.812  62.121  1.00 36.88    -0.323 N 
HETATM    9  C22 STI   202      12.296  95.974  61.365  1.00 34.79     0.256 C 
HETATM   10  O29 STI   202      13.301  95.299  61.481  1.00 40.42    -0.267 OA
HETATM   11  H21 STI   202      10.477  96.562  62.062  1.00  0.00     0.169 HD
BRANCH   9  12
HETATM   12  C23 STI   202      12.340  97.055  60.337  1.00 39.43     0.032 A 
HETATM   13  C25 STI   202      11.274  98.053  60.249  1.00 41.52     0.017 A 
HETATM   14  C26 STI   202      11.330  99.074  59.234  1.00 42.92     0.010 A 
HETATM   15  C27 STI   202      12.450  99.102  58.309  1.00 41.50    -0.033 A 
HETATM   16  C28 STI   202      13.496  98.107  58.422  1.00 41.95     0.010 A 
HETATM   17  C29 STI   202      13.447  97.102  59.411  1.00 42.07     0.017 A 
BRANCH  15  18
HETATM   18  C46 STI   202      12.571 100.143  57.191  1.00 42.63     0.273 C 
BRANCH  18  19
HETATM   19  N48 STI   202      13.238  99.727  55.921  1.00 46.81    -0.064 N 
HETATM   20  C49 STI   202      14.570 100.442  55.726  1.00 44.56     0.263 C 
HETATM   21  C50 STI   202      15.268  99.992  54.405  1.00 46.99     0.262 C 
HETATM   22  N51 STI   202      14.338 100.255  53.230  1.00 45.71    -0.072 N 
HETATM   23  C52 STI   202      13.009  99.539  53.415  1.00 42.59     0.262 C 
HETATM   24  C54 STI   202      15.023  99.892  51.978  1.00 47.72     0.269 C 
HETATM   25  H51 STI   202      14.151 101.247  53.202  1.00  0.00     0.279 HD
HETATM   26  C53 STI   202      12.337  99.971  54.743  1.00 41.12     0.263 C 
HETATM   27  H48 STI   202      13.420  98.736  55.974  1.00  0.00     0.280 HD
ENDBRANCH  18  19
ENDBRANCH  15  18
ENDBRANCH   9  12
ENDBRANCH   3   8
BRANCH   1  28
HETATM   28  N13 STI   202       8.312  91.866  63.327  1.00 45.65    -0.188 N 
HETATM   29  C9  STI   202       7.024  92.072  63.831  1.00 48.27     0.727 A 
HETATM   30  N8  STI   202       6.052  91.189  63.473  1.00 42.11    -0.062 NA
HETATM   31  N10 STI   202       6.716  93.134  64.666  1.00 45.18    -0.075 NA
HETATM   32  C7  STI   202       4.750  91.312  63.917  1.00 48.61     0.089 A 
HETATM   33  C12 STI   202       4.397  92.405  64.785  1.00 45.68     0.053 A 
HETATM   34  C11 STI   202       5.429  93.311  65.144  1.00 47.75     0.139 A 
HETATM   35  H13 STI   202       8.476  91.072  62.725  1.00  0.00     0.184 HD
BRANCH  32  36
HETATM   36  C5  STI   202       3.767  90.278  63.449  1.00 49.43     0.011 A 
HETATM   37  C4  STI   202       4.030  89.558  62.216  1.00 47.99     0.130 A 
HETATM   38  N3  STI   202       3.130  88.599  61.764  1.00 51.14    -0.272 NA
HETATM   39  C2  STI   202       1.954  88.283  62.451  1.00 52.94     0.116 A 
HETATM   40  C1  STI   202       1.628  88.955  63.677  1.00 54.02     0.020 A 
HETATM   41  C6  STI   202       2.542  89.958  64.175  1.00 52.26     0.017 A 
ENDBRANCH  32  36
ENDBRANCH   1  28
TORSDOF 6
ENDMDL
MODEL 3
REMARK VINA RESULT:     -10.2      2.027     13.766
REMARK  6 active torsions:
REMARK  status: ('A' for Active; 'I' for Inactive)
REMARK    1  A    between atoms: C5_5  and  C7_7 
REMARK       I    between atoms: C9_9  and  N13_13 
REMARK    2  A    between atoms: C14_14  and  N13_13 
REMARK    3  A    between atoms: C16_16  and  N21_21 
REMARK       I    between atoms: C22_22  and  N21_21 
REMARK    4  A    between atoms: C22_22  and  C23_23 
REMARK    5  A    between atoms: C27_26  and  C46_30 
REMARK    6  A    between atoms: C46_30  and  N48_31 
ROOT
HETATM    1  C14 STI   202      12.473  93.161  64.537  1.00 42.05     0.057 A 
HETATM    2  C15 STI   202      12.229  94.088  63.476  1.00 40.05     0.060 A 
HETATM    3  C16 STI   202      13.299  94.488  62.561  1.00 38.18     0.037 A 
HETATM    4  C17 STI   202      14.592  93.928  62.749  1.00 38.14     0.030 A 
HETATM    5  C18 STI   202      14.853  92.991  63.815  1.00 41.64     0.011 A 
HETATM    6  C19 STI   202      13.813  92.592  64.722  1.00 40.08    -0.035 A 
HETATM    7  C20 STI   202      14.173  91.589  65.843  1.00 40.72     0.050 C 
ENDROOT
BRANCH   3   8
HETATM    8  N21 STI   202      13.131  95.421  61.473  1.00 36.88    -0.323 N 
HETATM    9  C22 STI   202      12.103  96.319  61.259  1.00 34.79     0.256 C 
HETATM   10  O29 STI   202      11.043  96.311  61.854  1.00 40.42    -0.267 OA
HETATM   11  H21 STI   202      13.862  95.417  60.776  1.00  0.00     0.169 HD
BRANCH   9  12
HETATM   12  C23 STI   202      12.269  97.377  60.218  1.00 39.43     0.032 A 
HETATM   13  C25 STI   202      11.293  98.458  60.084  1.00 41.52     0.017 A 
HETATM   14  C26 STI   202      11.464  99.455  59.059  1.00 42.92     0.010 A 
HETATM   15  C27 STI   202      12.610  99.376  58.168  1.00 41.50    -0.033 A 
HETATM   16  C28 STI   202      13.565  98.299  58.326  1.00 41.95     0.010 A 
HETATM   17  C29 STI   202      13.403  97.317  59.327  1.00 42.07     0.017 A 
BRANCH  15  18
HETATM   18  C46 STI   202      12.851 100.386  57.042  1.00 42.63     0.273 C 
BRANCH  18  19
HETATM   19  N48 STI   202      13.473  99.887  55.780  1.00 46.81    -0.064 N 
HETATM   20  C49 STI   202      14.796 100.587  55.491  1.00 44.56     0.263 C 
HETATM   21  C50 STI   202      15.448 100.050  54.179  1.00 46.99     0.262 C 
HETATM   22  N51 STI   202      14.477 100.233  53.022  1.00 45.71    -0.072 N 
HETATM   23  C52 STI   202      13.157  99.531  53.301  1.00 42.59     0.262 C 
HETATM   24  C54 STI   202      15.118  99.788  51.774  1.00 47.72     0.269 C 
HETATM   25  H51 STI   202      14.286 101.222  52.934  1.00  0.00     0.279 HD
HETATM   26  C53 STI   202      12.531 100.051  54.621  1.00 41.12     0.263 C 
HETATM   27  H48 STI   202      13.660  98.901  55.893  1.00  0.00     0.280 HD
ENDBRANCH  18  19
ENDBRANCH  15  18
ENDBRANCH   9  12
ENDBRANCH   3   8
BRANCH   1  28
HETATM   28  N13 STI   202      11.412  92.818  65.391  1.00 45.65    -0.188 N 
HETATM   29  C9  STI   202      10.619  91.685  65.186  1.00 48.27     0.727 A 
HETATM   30  N8  STI   202       9.621  91.438  66.079  1.00 42.11    -0.062 NA
HETATM   31  N10 STI   202      10.821  90.820  64.123  1.00 45.18    -0.075 NA
HETATM   32  C7  STI   202       8.788  90.342  65.963  1.00 48.61     0.089 A 
HETATM   33  C12 STI   202       8.973  89.424  64.870  1.00 45.68     0.053 A 
HETATM   34  C11 STI   202      10.019  89.704  63.953  1.00 47.75     0.139 A 
HETATM   35  H13 STI   202      11.214  93.413  66.183  1.00  0.00     0.184 HD
BRANCH  32  36
HETATM   36  C5  STI   202       7.727  90.175  67.012  1.00 49.43     0.011 A 
HETATM   37  C4  STI   202       7.993  89.324  68.158  1.00 47.99     0.130 A 
HETATM   38  N3  STI   202       7.021  89.154  69.139  1.00 51.14    -0.272 NA
HETATM   39  C2  STI   202       5.769  89.773  69.078  1.00 52.94     0.116 A 
HETATM   40  C1  STI   202       5.436  90.627  67.973  1.00 54.02     0.020 A 
HETATM   41  C6  STI   202       6.424  90.826  66.936  1.00 52.26     0.017 A 
ENDBRANCH  32  36
ENDBRANCH   1  28
TORSDOF 6
ENDMDL
MODEL 4
REMARK VINA RESULT:     -10.0      1.959     13.587
REMARK  6 active torsions:
REMARK  status: ('A' for Active; 'I' for Inactive)
REMARK    1  A    between atoms: C5_5  and  C7_7 
REMARK       I    between atoms: C9_9  and  N13_13 
REMARK    2  A    between atoms: C14_14  and  N13_13 
REMARK    3  A    between atoms: C16_16  and  N21_21 
REMARK       I    between atoms: C22_22  and  N21_21 
REMARK    4  A    between atoms: C22_22  and  C23_23 
REMARK    5  A    between atoms: C27_26  and  C46_30 
REMARK    6  A    between atoms: C46_30  and  N48_31 
ROOT
HETATM    1  C14 STI   202      11.307  94.769  63.380  1.00 42.05     0.057 A 
HETATM    2  C15 STI   202      11.107  95.416  62.120  1.00 40.05     0.060 A 
HETATM    3  C16 STI   202      12.211  96.089  61.433  1.00 38.18     0.037 A 
HETATM    4  C17 STI   202      13.493  96.082  62.048  1.00 38.14     0.030 A 
HETATM    5  C18 STI   202      13.709  95.433  63.318  1.00 41.64     0.011 A 
HETATM    6  C19 STI   202      12.635  94.772  64.004  1.00 40.08    -0.035 A 
HETATM    7  C20 STI   202      12.944  94.105  65.365  1.00 40.72     0.050 C 
ENDROOT
BRANCH   3   8
HETATM    8  N21 STI   202      12.086  96.767  60.165  1.00 36.88    -0.323 N 
HETATM    9  C22 STI   202      11.531  98.005  59.901  1.00 34.79     0.256 C 
HETATM   10  O29 STI   202      10.848  98.638  60.684  1.00 40.42    -0.267 OA
HETATM   11  H21 STI   202      12.452  96.272  59.366  1.00  0.00     0.169 HD
BRANCH   9  12
HETATM   12  C23 STI   202      11.754  98.629  58.563  1.00 39.43     0.032 A 
HETATM   13  C25 STI   202      10.667  98.724  57.588  1.00 41.52     0.017 A 
HETATM   14  C26 STI   202      10.913  99.314  56.297  1.00 42.92     0.010 A 
HETATM   15  C27 STI   202      12.241  99.811  55.979  1.00 41.50    -0.033 A 
HETATM   16  C28 STI   202      13.297  99.711  56.964  1.00 41.95     0.010 A 
HETATM   17  C29 STI   202      13.065  99.133  58.231  1.00 42.07     0.017 A 
BRANCH  15  18
HETATM   18  C46 STI   202      12.586 100.432  54.621  1.00 42.63     0.273 C 
BRANCH  18  19
HETATM   19  N48 STI   202      13.923 100.122  54.033  1.00 46.81    -0.064 N 
HETATM   20  C49 STI   202      14.933 101.228  54.319  1.00 44.56     0.263 C 
HETATM   21  C50 STI   202      16.331 100.891  53.715  1.00 46.99     0.262 C 
HETATM   22  N51 STI   202      16.190 100.663  52.217  1.00 45.71    -0.072 N 
HETATM   23  C52 STI   202      15.190  99.556  51.925  1.00 42.59     0.262 C 
HETATM   24  C54 STI   202      17.520 100.411  51.637  1.00 47.72     0.269 C 
HETATM   25  H51 STI   202      15.834 101.516  51.808  1.00  0.00     0.279 HD
HETATM   26  C53 STI   202      13.812  99.886  52.553  1.00 41.12     0.263 C 
HETATM   27  H48 STI   202      14.262  99.272  54.459  1.00  0.00     0.280 HD
ENDBRANCH  18  19
ENDBRANCH  15  18
ENDBRANCH   9  12
ENDBRANCH   3   8
BRANCH   1  28
HETATM   28  N13 STI   202      10.211  94.146  63.999  1.00 45.65    -0.188 N 
HETATM   29  C9  STI   202      10.135  92.761  64.173  1.00 48.27     0.727 A 
HETATM   30  N8  STI   202       9.032  92.258  64.795  1.00 42.11    -0.062 NA
HETATM   31  N10 STI   202      11.134  91.903  63.743  1.00 45.18    -0.075 NA
HETATM   32  C7  STI   202       8.869  90.905  65.016  1.00 48.61     0.089 A 
HETATM   33  C12 STI   202       9.889  89.987  64.582  1.00 45.68     0.053 A 
HETATM   34  C11 STI   202      11.028  90.536  63.936  1.00 47.75     0.139 A 
HETATM   35  H13 STI   202       9.450  94.720  64.332  1.00  0.00     0.184 HD
BRANCH  32  36
HETATM   36  C5  STI   202       7.613  90.472  65.715  1.00 49.43     0.011 A 
HETATM   37  C4  STI   202       7.020  89.191  65.377  1.00 47.99     0.130 A 
HETATM   38  N3  STI   202       5.855  88.774  66.011  1.00 51.14    -0.272 NA
HETATM   39  C2  STI   202       5.204  89.543  66.981  1.00 52.94     0.116 A 
HETATM   40  C1  STI   202       5.733  90.823  67.365  1.00 54.02     0.020 A 
HETATM   41  C6  STI   202       6.944  91.285  66.725  1.00 52.26     0.017 A 
ENDBRANCH  32  36
ENDBRANCH   1  28
TORSDOF 6
ENDMDL
