MODEL 1
REMARK VINA RESULT:     -10.6      0.000      0.000
REMARK  6 active torsions:
REMARK  status: ('A' for Active; 'I' for Inactive)
REMARK    1  A    between atoms: C5_5  and  C7_7 
REMARK       I    between atoms: C9_9  and  N13_13 
REMARK    2  A    between atoms: C14_14  and  N13_13 
REMARK    3  A    between atoms: C16_16  and  N21_21 
REMARK       I    between atoms: C22_22  and  N21_21 
REMARK    4  A    between atoms: C22_22  and  C23_23 
REMARK    5  A    between atoms: C27_26  and  C46_30 
REMARK    6  A    between atoms: C46_30  and  N48_31 
ROOT
HETATM    1  C14 STI   202       9.321  92.760  63.544  1.00 42.05     0.057 A 
HETATM    2  C15 STI   202       9.632  93.832  62.650  1.00 40.05     0.060 A 
HETATM    3  C16 STI   202      10.774  94.715  62.899  1.00 38.18     0.037 A 
HETATM    4  C17 STI   202      11.571  94.478  64.052  1.00 38.14     0.030 A 
HETATM    5  C18 STI   202      11.269  93.401  64.961  1.00 41.64     0.011 A 
HETATM    6  C19 STI   202      10.151  92.529  64.731  1.00 40.08    -0.035 A 
HETATM    7  C20 STI   202       9.888  91.400  65.756  1.00 40.72     0.050 C 
ENDROOT
BRANCH   3   8
HETATM    8  N21 STI   202      11.147  95.819  62.048  1.00 36.88    -0.323 N 
HETATM    9  C22 STI   202      12.302  95.985  61.308  1.00 34.79     0.256 C 
HETATM   10  O29 STI   202      13.305  95.308  61.432  1.00 40.42    -0.267 OA
HETATM   11  H21 STI   202      10.475  96.570  61.985  1.00  0.00     0.169 HD
BRANCH   9  12
HETATM   12  C23 STI   202      12.360  97.072  60.287  1.00 39.43     0.032 A 
HETATM   13  C25 STI   202      11.311  98.089  60.211  1.00 41.52     0.017 A 
HETATM   14  C26 STI   202      11.381  99.116  59.203  1.00 42.92     0.010 A 
HETATM   15  C27 STI   202      12.497  99.131  58.273  1.00 41.50    -0.033 A 
HETATM   16  C28 STI   202      13.525  98.117  58.373  1.00 41.95     0.010 A 
HETATM   17  C29 STI   202      13.464  97.106  59.356  1.00 42.07     0.017 A 
BRANCH  15  18
HETATM   18  C46 STI   202      12.630 100.177  57.161  1.00 42.63     0.273 C 
BRANCH  18  19
HETATM   19  N48 STI   202      13.302  99.765  55.893  1.00 46.81    -0.064 N 
HETATM   20  C49 STI   202      14.639 100.474  55.710  1.00 44.56     0.263 C 
HETATM   21  C50 STI   202      15.342 100.028  54.390  1.00 46.99     0.262 C 
HETATM   22  N51 STI   202      14.420 100.301  53.212  1.00 45.71    -0.072 N 
HETATM   23  C52 STI   202      13.087  99.591  53.385  1.00 42.59     0.262 C 
HETATM   24  C54 STI   202      15.111  99.942  51.962  1.00 47.72     0.269 C 
HETATM   25  H51 STI   202      14.238 101.295  53.187  1.00  0.00     0.279 HD
HETATM   26  C53 STI   202      12.409 100.020  54.712  1.00 41.12     0.263 C 
HETATM   27  H48 STI   202      13.479  98.773  55.942  1.00  0.00     0.280 HD
ENDBRANCH  18  19
ENDBRANCH  15  18
ENDBRANCH   9  12
ENDBRANCH   3   8
BRANCH   1  28
HETATM   28  N13 STI   202       8.209  91.949  63.262  1.00 45.65    -0.188 N 
HETATM   29  C9  STI   202       6.951  92.176  63.827  1.00 48.27     0.727 A 
HETATM   30  N8  STI   202       5.937  91.336  63.480  1.00 42.11    -0.062 NA
HETATM   31  N10 STI   202       6.711  93.217  64.709  1.00 45.18    -0.075 NA
HETATM   32  C7  STI   202       4.659  91.483  63.982  1.00 48.61     0.089 A 
HETATM   33  C12 STI   202       4.377  92.554  64.900  1.00 45.68     0.053 A 
HETATM   34  C11 STI   202       5.450  93.416  65.247  1.00 47.75     0.139 A 
HETATM   35  H13 STI   202       8.324  91.172  62.627  1.00  0.00     0.184 HD
BRANCH  32  36
HETATM   36  C5  STI   202       3.625  90.496  63.521  1.00 49.43     0.011 A 
HETATM   37  C4  STI   202       3.694  89.981  62.166  1.00 47.99     0.130 A 
HETATM   38  N3  STI   202       2.744  89.069  61.718  1.00 51.14    -0.272 NA
HETATM   39  C2  STI   202       1.698  88.610  62.525  1.00 52.94     0.116 A 
HETATM   40  C1  STI   202       1.567  89.077  63.877  1.00 54.02     0.020 A 
HETATM   41  C6  STI   202       2.538  90.026  64.373  1.00 52.26     0.017 A 
ENDBRANCH  32  36
ENDBRANCH   1  28
TORSDOF 6
ENDMDL
MODEL 2
REMARK VINA RESULT:     -10.2      1.813      2.214
REMARK  6 active torsions:
REMARK  status: ('A' for Active; 'I' for Inactive)
REMARK    1  A    between atoms: C5_5  and  C7_7 
REMARK       I    between atoms: C9_9  and  N13_13 
REMARK    2  A    between atoms: C14_14  and  N13_13 
REMARK    3  A    between atoms: C16_16  and  N21_21 
REMARK       I    between atoms: C22_22  and  N21_21 
REMARK    4  A    between atoms: C22_22  and  C23_23 
REMARK    5  A    between atoms: C27_26  and  C46_30 
REMARK    6  A    between atoms: C46_30  and  N48_31 
ROOT
HETATM    1  C14 STI   202       9.366  92.571  63.359  1.00 42.05     0.057 A 
HETATM    2  C15 STI   202       9.816  93.561  62.429  1.00 40.05     0.060 A 
HETATM    3  C16 STI   202      10.459  94.793  62.890  1.00 38.18     0.037 A 
HETATM    4  C17 STI   202      10.630  94.982  64.289  1.00 38.14     0.030 A 
HETATM    5  C18 STI   202      10.181  93.992  65.238  1.00 41.64     0.011 A 
HETATM    6  C19 STI   202       9.546  92.781  64.799  1.00 40.08    -0.035 A 
HETATM    7  C20 STI   202       9.087  91.771  65.877  1.00 40.72     0.050 C 
ENDROOT
BRANCH   3   8
HETATM    8  N21 STI   202      10.933  95.838  62.016  1.00 36.88    -0.323 N 
HETATM    9  C22 STI   202      12.176  95.970  61.426  1.00 34.79     0.256 C 
HETATM   10  O29 STI   202      13.159  95.324  61.733  1.00 40.42    -0.267 OA
HETATM   11  H21 STI   202      10.270  96.570  61.808  1.00  0.00     0.169 HD
BRANCH   9  12
HETATM   12  C23 STI   202      12.361  96.980  60.342  1.00 39.43     0.032 A 
HETATM   13  C25 STI   202      13.558  96.969  59.502  1.00 41.52     0.017 A 
HETATM   14  C26 STI   202      13.722  97.967  58.476  1.00 42.92     0.010 A 
HETATM   15  C27 STI   202      12.692  98.974  58.286  1.00 41.50    -0.033 A 
HETATM   16  C28 STI   202      11.514  98.959  59.127  1.00 41.95     0.010 A 
HETATM   17  C29 STI   202      11.346  97.986  60.135  1.00 42.07     0.017 A 
BRANCH  15  18
HETATM   18  C46 STI   202      12.803 100.080  57.231  1.00 42.63     0.273 C 
BRANCH  18  19
HETATM   19  N48 STI   202      13.403  99.725  55.910  1.00 46.81    -0.064 N 
HETATM   20  C49 STI   202      14.745 100.416  55.699  1.00 44.56     0.263 C 
HETATM   21  C50 STI   202      15.373 100.029  54.324  1.00 46.99     0.262 C 
HETATM   22  N51 STI   202      14.401 100.385  53.209  1.00 45.71    -0.072 N 
HETATM   23  C52 STI   202      13.062  99.693  53.410  1.00 42.59     0.262 C 
HETATM   24  C54 STI   202      15.021 100.081  51.908  1.00 47.72     0.269 C 
HETATM   25  H51 STI   202      14.240 101.382  53.247  1.00  0.00     0.279 HD
HETATM   26  C53 STI   202      12.459 100.061  54.790  1.00 41.12     0.263 C 
HETATM   27  H48 STI   202      13.560  98.727  55.897  1.00  0.00     0.280 HD
ENDBRANCH  18  19
ENDBRANCH  15  18
ENDBRANCH   9  12
ENDBRANCH   3   8
BRANCH   1  28
HETATM   28  N13 STI   202       8.749  91.412  62.862  1.00 45.65    -0.188 N 
HETATM   29  C9  STI   202       7.440  91.410  62.369  1.00 48.27     0.727 A 
HETATM   30  N8  STI   202       6.939  90.233  61.902  1.00 42.11    -0.062 NA
HETATM   31  N10 STI   202       6.657  92.552  62.340  1.00 45.18    -0.075 NA
HETATM   32  C7  STI   202       5.659  90.133  61.392  1.00 48.61     0.089 A 
HETATM   33  C12 STI   202       4.820  91.301  61.347  1.00 45.68     0.053 A 
HETATM   34  C11 STI   202       5.366  92.515  61.841  1.00 47.75     0.139 A 
HETATM   35  H13 STI   202       9.270  90.547  62.860  1.00  0.00     0.184 HD
BRANCH  32  36
HETATM   36  C5  STI   202       5.221  88.782  60.903  1.00 49.43     0.011 A 
HETATM   37  C4  STI   202       4.605  88.670  59.593  1.00 47.99     0.130 A 
HETATM   38  N3  STI   202       4.189  87.429  59.124  1.00 51.14    -0.272 NA
HETATM   39  C2  STI   202       4.336  86.252  59.865  1.00 52.94     0.116 A 
HETATM   40  C1  STI   202       4.937  86.287  61.169  1.00 54.02     0.020 A 
HETATM   41  C6  STI   202       5.380  87.562  61.686  1.00 52.26     0.017 A 
ENDBRANCH  32  36
ENDBRANCH   1  28
TORSDOF 6
ENDMDL
MODEL 3
REMARK VINA RESULT:      -9.6      3.409      4.509
REMARK  6 active torsions:
REMARK  status: ('A' for Active; 'I' for Inactive)
REMARK    1  A    between atoms: C5_5  and  C7_7 
REMARK       I    between atoms: C9_9  and  N13_13 
REMARK    2  A    between atoms: C14_14  and  N13_13 
REMARK    3  A    between atoms: C16_16  and  N21_21 
REMARK       I    between atoms: C22_22  and  N21_21 
REMARK    4  A    between atoms: C22_22  and  C23_23 
REMARK    5  A    between atoms: C27_26  and  C46_30 
REMARK    6  A    between atoms: C46_30  and  N48_31 
ROOT
HETATM    1  C14 STI   202      13.090  93.517  64.233  1.00 42.05     0.057 A 
HETATM    2  C15 STI   202      12.691  94.453  63.228  1.00 40.05     0.060 A 
HETATM    3  C16 STI   202      13.620  94.874  62.177  1.00 38.18     0.037 A 
HETATM    4  C17 STI   202      14.932  94.326  62.177  1.00 38.14     0.030 A 
HETATM    5  C18 STI   202      15.347  93.381  63.184  1.00 41.64     0.011 A 
HETATM    6  C19 STI   202      14.448  92.962  64.223  1.00 40.08    -0.035 A 
HETATM    7  C20 STI   202      14.970  91.950  65.271  1.00 40.72     0.050 C 
ENDROOT
BRANCH   3   8
HETATM    8  N21 STI   202      13.293  95.816  61.134  1.00 36.88    -0.323 N 
HETATM    9  C22 STI   202      12.163  96.600  61.004  1.00 34.79     0.256 C 
HETATM   10  O29 STI   202      11.143  96.455  61.651  1.00 40.42    -0.267 OA
HETATM   11  H21 STI   202      13.981  95.916  60.403  1.00  0.00     0.169 HD
BRANCH   9  12
HETATM   12  C23 STI   202      12.155  97.702  59.997  1.00 39.43     0.032 A 
HETATM   13  C25 STI   202      13.249  97.850  59.037  1.00 41.52     0.017 A 
HETATM   14  C26 STI   202      13.228  98.933  58.088  1.00 42.92     0.010 A 
HETATM   15  C27 STI   202      12.115  99.868  58.094  1.00 41.50    -0.033 A 
HETATM   16  C28 STI   202      11.042  99.695  59.050  1.00 41.95     0.010 A 
HETATM   17  C29 STI   202      11.056  98.637  59.984  1.00 42.07     0.017 A 
BRANCH  15  18
HETATM   18  C46 STI   202      12.031 101.056  57.131  1.00 42.63     0.273 C 
BRANCH  18  19
HETATM   19  N48 STI   202      12.637 100.899  55.775  1.00 46.81    -0.064 N 
HETATM   20  C49 STI   202      11.970  99.775  54.990  1.00 44.56     0.263 C 
HETATM   21  C50 STI   202      12.598  99.626  53.569  1.00 46.99     0.262 C 
HETATM   22  N51 STI   202      14.093  99.378  53.703  1.00 45.71    -0.072 N 
HETATM   23  C52 STI   202      14.765 100.499  54.480  1.00 42.59     0.262 C 
HETATM   24  C54 STI   202      14.673  99.171  52.365  1.00 47.72     0.269 C 
HETATM   25  H51 STI   202      14.218  98.523  54.227  1.00  0.00     0.279 HD
HETATM   26  C53 STI   202      14.116 100.658  55.879  1.00 41.12     0.263 C 
HETATM   27  H48 STI   202      12.495 101.760  55.268  1.00  0.00     0.280 HD
ENDBRANCH  18  19
ENDBRANCH  15  18
ENDBRANCH   9  12
ENDBRANCH   3   8
BRANCH   1  28
HETATM   28  N13 STI   202      12.161  93.154  65.223  1.00 45.65    -0.188 N 
HETATM   29  C9  STI   202      11.372  92.005  65.127  1.00 48.27     0.727 A 
HETATM   30  N8  STI   202      10.509  91.739  66.146  1.00 42.11    -0.062 NA
HETATM   31  N10 STI   202      11.446  91.143  64.045  1.00 45.18    -0.075 NA
HETATM   32  C7  STI   202       9.692  90.626  66.143  1.00 48.61     0.089 A 
HETATM   33  C12 STI   202       9.745  89.710  65.034  1.00 45.68     0.053 A 
HETATM   34  C11 STI   202      10.652  90.010  63.984  1.00 47.75     0.139 A 
HETATM   35  H13 STI   202      12.061  93.746  66.035  1.00  0.00     0.184 HD
BRANCH  32  36
HETATM   36  C5  STI   202       8.786  90.439  67.326  1.00 49.43     0.011 A 
HETATM   37  C4  STI   202       7.384  90.134  67.102  1.00 47.99     0.130 A 
HETATM   38  N3  STI   202       6.528  89.961  68.185  1.00 51.14    -0.272 NA
HETATM   39  C2  STI   202       6.956  90.068  69.512  1.00 52.94     0.116 A 
HETATM   40  C1  STI   202       8.328  90.368  69.808  1.00 54.02     0.020 A 
HETATM   41  C6  STI   202       9.244  90.554  68.706  1.00 52.26     0.017 A 
ENDBRANCH  32  36
ENDBRANCH   1  28
TORSDOF 6
ENDMDL
MODEL 4
REMARK VINA RESULT:      -8.9      2.278     13.006
REMARK  6 active torsions:
REMARK  status: ('A' for Active; 'I' for Inactive)
REMARK    1  A    between atoms: C5_5  and  C7_7 
REMARK       I    between atoms: C9_9  and  N13_13 
REMARK    2  A    between atoms: C14_14  and  N13_13 
REMARK    3  A    between atoms: C16_16  and  N21_21 
REMARK       I    between atoms: C22_22  and  N21_21 
REMARK    4  A    between atoms: C22_22  and  C23_23 
REMARK    5  A    between atoms: C27_26  and  C46_30 
REMARK    6  A    between atoms: C46_30  and  N48_31 
ROOT
HETATM    1  C14 STI   202      12.947  95.764  61.761  1.00 42.05     0.057 A 
HETATM    2  C15 STI   202      11.574  95.391  61.902  1.00 40.05     0.060 A 
HETATM    3  C16 STI   202      11.087  94.750  63.125  1.00 38.18     0.037 A 
HETATM    4  C17 STI   202      12.015  94.510  64.176  1.00 38.14     0.030 A 
HETATM    5  C18 STI   202      13.403  94.881  64.047  1.00 41.64     0.011 A 
HETATM    6  C19 STI   202      13.894  95.508  62.852  1.00 40.08    -0.035 A 
HETATM    7  C20 STI   202      15.397  95.870  62.787  1.00 40.72     0.050 C 
ENDROOT
BRANCH   3   8
HETATM    8  N21 STI   202       9.721  94.340  63.339  1.00 36.88    -0.323 N 
HETATM    9  C22 STI   202       9.236  93.082  63.645  1.00 34.79     0.256 C 
HETATM   10  O29 STI   202       9.882  92.055  63.566  1.00 40.42    -0.267 OA
HETATM   11  H21 STI   202       9.026  95.067  63.254  1.00  0.00     0.169 HD
BRANCH   9  12
HETATM   12  C23 STI   202       7.819  92.940  64.093  1.00 39.43     0.032 A 
HETATM   13  C25 STI   202       6.732  92.823  63.121  1.00 41.52     0.017 A 
HETATM   14  C26 STI   202       5.371  92.706  63.578  1.00 42.92     0.010 A 
HETATM   15  C27 STI   202       5.094  92.704  65.005  1.00 41.50    -0.033 A 
HETATM   16  C28 STI   202       6.188  92.814  65.946  1.00 41.95     0.010 A 
HETATM   17  C29 STI   202       7.524  92.930  65.506  1.00 42.07     0.017 A 
BRANCH  15  18
HETATM   18  C46 STI   202       3.673  92.604  65.569  1.00 42.63     0.273 C 
BRANCH  18  19
HETATM   19  N48 STI   202       3.327  91.396  66.376  1.00 46.81    -0.064 N 
HETATM   20  C49 STI   202       3.529  90.112  65.579  1.00 44.56     0.263 C 
HETATM   21  C50 STI   202       3.179  88.853  66.433  1.00 46.99     0.262 C 
HETATM   22  N51 STI   202       1.744  88.962  66.926  1.00 45.71    -0.072 N 
HETATM   23  C52 STI   202       1.538  90.238  67.728  1.00 42.59     0.262 C 
HETATM   24  C54 STI   202       1.394  87.744  67.676  1.00 47.72     0.269 C 
HETATM   25  H51 STI   202       1.143  89.008  66.116  1.00  0.00     0.279 HD
HETATM   26  C53 STI   202       1.914  91.481  66.881  1.00 41.12     0.263 C 
HETATM   27  H48 STI   202       3.943  91.368  67.175  1.00  0.00     0.280 HD
ENDBRANCH  18  19
ENDBRANCH  15  18
ENDBRANCH   9  12
ENDBRANCH   3   8
BRANCH   1  28
HETATM   28  N13 STI   202      13.362  96.368  60.562  1.00 45.65    -0.188 N 
HETATM   29  C9  STI   202      12.694  97.461  60.002  1.00 48.27     0.727 A 
HETATM   30  N8  STI   202      13.184  97.978  58.842  1.00 42.11    -0.062 NA
HETATM   31  N10 STI   202      11.572  98.024  60.587  1.00 45.18    -0.075 NA
HETATM   32  C7  STI   202      12.595  99.060  58.216  1.00 48.61     0.089 A 
HETATM   33  C12 STI   202      11.429  99.668  58.798  1.00 45.68     0.053 A 
HETATM   34  C11 STI   202      10.937  99.110  60.007  1.00 47.75     0.139 A 
HETATM   35  H13 STI   202      14.174  95.999  60.088  1.00  0.00     0.184 HD
BRANCH  32  36
HETATM   36  C5  STI   202      13.230  99.542  56.943  1.00 49.43     0.011 A 
HETATM   37  C4  STI   202      12.380  99.990  55.854  1.00 47.99     0.130 A 
HETATM   38  N3  STI   202      12.949 100.437  54.666  1.00 51.14    -0.272 NA
HETATM   39  C2  STI   202      14.331 100.479  54.458  1.00 52.94     0.116 A 
HETATM   40  C1  STI   202      15.232 100.051  55.491  1.00 54.02     0.020 A 
HETATM   41  C6  STI   202      14.674  99.580  56.738  1.00 52.26     0.017 A 
ENDBRANCH  32  36
ENDBRANCH   1  28
TORSDOF 6
ENDMDL
MODEL 5
REMARK VINA RESULT:      -8.8      1.801     12.401
REMARK  6 active torsions:
REMARK  status: ('A' for Active; 'I' for Inactive)
REMARK    1  A    between atoms: C5_5  and  C7_7 
REMARK       I    between atoms: C9_9  and  N13_13 
REMARK    2  A    between atoms: C14_14  and  N13_13 
REMARK    3  A    between atoms: C16_16  and  N21_21 
REMARK       I    between atoms: C22_22  and  N21_21 
REMARK    4  A    between atoms: C22_22  and  C23_23 
REMARK    5  A    between atoms: C27_26  and  C46_30 
REMARK    6  A    between atoms: C46_30  and  N48_31 
ROOT
HETATM    1  C14 STI   202      12.591  95.757  61.937  1.00 42.05     0.057 A 
HETATM    2  C15 STI   202      11.341  95.071  61.831  1.00 40.05     0.060 A 
HETATM    3  C16 STI   202      10.734  94.423  62.995  1.00 38.18     0.037 A 
HETATM    4  C17 STI   202      11.417  94.495  64.240  1.00 38.14     0.030 A 
HETATM    5  C18 STI   202      12.678  95.183  64.362  1.00 41.64     0.011 A 
HETATM    6  C19 STI   202      13.287  95.821  63.227  1.00 40.08    -0.035 A 
HETATM    7  C20 STI   202      14.643  96.534  63.437  1.00 40.72     0.050 C 
ENDROOT
BRANCH   3   8
HETATM    8  N21 STI   202       9.480  93.708  62.965  1.00 36.88    -0.323 N 
HETATM    9  C22 STI   202       9.207  92.429  63.410  1.00 34.79     0.256 C 
HETATM   10  O29 STI   202      10.051  91.604  63.704  1.00 40.42    -0.267 OA
HETATM   11  H21 STI   202       8.700  94.209  62.567  1.00  0.00     0.169 HD
BRANCH   9  12
HETATM   12  C23 STI   202       7.785  91.991  63.533  1.00 39.43     0.032 A 
HETATM   13  C25 STI   202       6.689  92.882  63.153  1.00 41.52     0.017 A 
HETATM   14  C26 STI   202       5.325  92.443  63.300  1.00 42.92     0.010 A 
HETATM   15  C27 STI   202       5.053  91.116  63.824  1.00 41.50    -0.033 A 
HETATM   16  C28 STI   202       6.157  90.251  64.187  1.00 41.95     0.010 A 
HETATM   17  C29 STI   202       7.495  90.674  64.048  1.00 42.07     0.017 A 
BRANCH  15  18
HETATM   18  C46 STI   202       3.631  90.585  64.029  1.00 42.63     0.273 C 
BRANCH  18  19
HETATM   19  N48 STI   202       2.860  90.172  62.819  1.00 46.81    -0.064 N 
HETATM   20  C49 STI   202       1.774  89.159  63.163  1.00 44.56     0.263 C 
HETATM   21  C50 STI   202       0.963  88.743  61.897  1.00 46.99     0.262 C 
HETATM   22  N51 STI   202       1.915  88.180  60.852  1.00 45.71    -0.072 N 
HETATM   23  C52 STI   202       2.997  89.188  60.499  1.00 42.59     0.262 C 
HETATM   24  C54 STI   202       1.141  87.726  59.684  1.00 47.72     0.269 C 
HETATM   25  H51 STI   202       2.368  87.371  61.253  1.00  0.00     0.279 HD
HETATM   26  C53 STI   202       3.779  89.616  61.768  1.00 41.12     0.263 C 
HETATM   27  H48 STI   202       2.412  90.993  62.439  1.00  0.00     0.280 HD
ENDBRANCH  18  19
ENDBRANCH  15  18
ENDBRANCH   9  12
ENDBRANCH   3   8
BRANCH   1  28
HETATM   28  N13 STI   202      13.132  96.355  60.787  1.00 45.65    -0.188 N 
HETATM   29  C9  STI   202      12.515  97.427  60.136  1.00 48.27     0.727 A 
HETATM   30  N8  STI   202      13.128  97.939  59.034  1.00 42.11    -0.062 NA
HETATM   31  N10 STI   202      11.322  97.976  60.578  1.00 45.18    -0.075 NA
HETATM   32  C7  STI   202      12.597  99.001  58.328  1.00 48.61     0.089 A 
HETATM   33  C12 STI   202      11.360  99.594  58.761  1.00 45.68     0.053 A 
HETATM   34  C11 STI   202      10.741  99.041  59.912  1.00 47.75     0.139 A 
HETATM   35  H13 STI   202      14.000  95.996  60.416  1.00  0.00     0.184 HD
BRANCH  32  36
HETATM   36  C5  STI   202      13.368  99.480  57.131  1.00 49.43     0.011 A 
HETATM   37  C4  STI   202      12.646 100.036  56.001  1.00 47.99     0.130 A 
HETATM   38  N3  STI   202      13.341 100.482  54.881  1.00 51.14    -0.272 NA
HETATM   39  C2  STI   202      14.735 100.421  54.783  1.00 52.94     0.116 A 
HETATM   40  C1  STI   202      15.514  99.883  55.863  1.00 54.02     0.020 A 
HETATM   41  C6  STI   202      14.822  99.411  57.041  1.00 52.26     0.017 A 
ENDBRANCH  32  36
ENDBRANCH   1  28
TORSDOF 6
ENDMDL
MODEL 6
REMARK VINA RESULT:      -8.6      7.338     14.041
REMARK  6 active torsions:
REMARK  status: ('A' for Active; 'I' for Inactive)
REMARK    1  A    between atoms: C5_5  and  C7_7 
REMARK       I    between atoms: C9_9  and  N13_13 
REMARK    2  A    between atoms: C14_14  and  N13_13 
REMARK    3  A    between atoms: C16_16  and  N21_21 
REMARK       I    between atoms: C22_22  and  N21_21 
REMARK    4  A    between atoms: C22_22  and  C23_23 
REMARK    5  A    between atoms: C27_26  and  C46_30 
REMARK    6  A    between atoms: C46_30  and  N48_31 
ROOT
HETATM    1  C14 STI   202       8.481  90.940  63.732  1.00 42.05     0.057 A 
HETATM    2  C15 STI   202       8.809  90.469  65.042  1.00 40.05     0.060 A 
HETATM    3  C16 STI   202       8.815  91.376  66.191  1.00 38.18     0.037 A 
HETATM    4  C17 STI   202       8.482  92.741  65.975  1.00 38.14     0.030 A 
HETATM    5  C18 STI   202       8.149  93.230  64.660  1.00 41.64     0.011 A 
HETATM    6  C19 STI   202       8.142  92.351  63.523  1.00 40.08    -0.035 A 
HETATM    7  C20 STI   202       7.780  92.952  62.144  1.00 40.72     0.050 C 
ENDROOT
BRANCH   3   8
HETATM    8  N21 STI   202       9.141  90.977  67.539  1.00 36.88    -0.323 N 
HETATM    9  C22 STI   202       8.295  90.516  68.530  1.00 34.79     0.256 C 
HETATM   10  O29 STI   202       7.081  90.583  68.488  1.00 40.42    -0.267 OA
HETATM   11  H21 STI   202      10.116  91.043  67.792  1.00  0.00     0.169 HD
BRANCH   9  12
HETATM   12  C23 STI   202       8.881  89.903  69.758  1.00 39.43     0.032 A 
HETATM   13  C25 STI   202       9.621  88.643  69.688  1.00 41.52     0.017 A 
HETATM   14  C26 STI   202      10.160  88.061  70.891  1.00 42.92     0.010 A 
HETATM   15  C27 STI   202       9.963  88.736  72.163  1.00 41.50    -0.033 A 
HETATM   16  C28 STI   202       9.233  89.985  72.203  1.00 41.95     0.010 A 
HETATM   17  C29 STI   202       8.700  90.561  71.030  1.00 42.07     0.017 A 
BRANCH  15  18
HETATM   18  C46 STI   202      10.488  88.171  73.487  1.00 42.63     0.273 C 
BRANCH  18  19
HETATM   19  N48 STI   202      10.366  86.700  73.713  1.00 46.81    -0.064 N 
HETATM   20  C49 STI   202       8.911  86.245  73.673  1.00 44.56     0.263 C 
HETATM   21  C50 STI   202       8.792  84.705  73.896  1.00 46.99     0.262 C 
HETATM   22  N51 STI   202       9.436  84.337  75.224  1.00 45.71    -0.072 N 
HETATM   23  C52 STI   202      10.889  84.783  75.269  1.00 42.59     0.262 C 
HETATM   24  C54 STI   202       9.264  82.895  75.465  1.00 47.72     0.269 C 
HETATM   25  H51 STI   202       8.941  84.831  75.953  1.00  0.00     0.279 HD
HETATM   26  C53 STI   202      11.000  86.309  75.018  1.00 41.12     0.263 C 
HETATM   27  H48 STI   202      10.861  86.228  72.972  1.00  0.00     0.280 HD
ENDBRANCH  18  19
ENDBRANCH  15  18
ENDBRANCH   9  12
ENDBRANCH   3   8
BRANCH   1  28
HETATM   28  N13 STI   202       8.498  90.028  62.664  1.00 45.65    -0.188 N 
HETATM   29  C9  STI   202       7.394  89.235  62.335  1.00 48.27     0.727 A 
HETATM   30  N8  STI   202       7.513  88.389  61.274  1.00 42.11    -0.062 NA
HETATM   31  N10 STI   202       6.205  89.289  63.042  1.00 45.18    -0.075 NA
HETATM   32  C7  STI   202       6.476  87.571  60.871  1.00 48.61     0.089 A 
HETATM   33  C12 STI   202       5.227  87.604  61.585  1.00 45.68     0.053 A 
HETATM   34  C11 STI   202       5.130  88.493  62.687  1.00 47.75     0.139 A 
HETATM   35  H13 STI   202       9.340  89.942  62.113  1.00  0.00     0.184 HD
BRANCH  32  36
HETATM   36  C5  STI   202       6.726  86.685  59.684  1.00 49.43     0.011 A 
HETATM   37  C4  STI   202       6.667  87.256  58.351  1.00 47.99     0.130 A 
HETATM   38  N3  STI   202       6.892  86.452  57.238  1.00 51.14    -0.272 NA
HETATM   39  C2  STI   202       7.179  85.086  57.338  1.00 52.94     0.116 A 
HETATM   40  C1  STI   202       7.253  84.454  58.625  1.00 54.02     0.020 A 
HETATM   41  C6  STI   202       7.024  85.262  59.802  1.00 52.26     0.017 A 
ENDBRANCH  32  36
ENDBRANCH   1  28
TORSDOF 6
ENDMDL
MODEL 7
REMARK VINA RESULT:      -8.3      7.582     15.667
REMARK  6 active torsions:
REMARK  status: ('A' for Active; 'I' for Inactive)
REMARK    1  A    between atoms: C5_5  and  C7_7 
REMARK       I    between atoms: C9_9  and  N13_13 
REMARK    2  A    between atoms: C14_14  and  N13_13 
REMARK    3  A    between atoms: C16_16  and  N21_21 
REMARK       I    between atoms: C22_22  and  N21_21 
REMARK    4  A    between atoms: C22_22  and  C23_23 
REMARK    5  A    between atoms: C27_26  and  C46_30 
REMARK    6  A    between atoms: C46_30  and  N48_31 
ROOT
HETATM    1  C14 STI   202       8.291  91.436  66.850  1.00 42.05     0.057 A 
HETATM    2  C15 STI   202       8.663  90.306  67.644  1.00 40.05     0.060 A 
HETATM    3  C16 STI   202       7.649  89.432  68.236  1.00 38.18     0.037 A 
HETATM    4  C17 STI   202       6.279  89.732  67.999  1.00 38.14     0.030 A 
HETATM    5  C18 STI   202       5.890  90.868  67.200  1.00 41.64     0.011 A 
HETATM    6  C19 STI   202       6.875  91.735  66.616  1.00 40.08    -0.035 A 
HETATM    7  C20 STI   202       6.378  92.937  65.778  1.00 40.72     0.050 C 
ENDROOT
BRANCH   3   8
HETATM    8  N21 STI   202       7.945  88.280  69.052  1.00 36.88    -0.323 N 
HETATM    9  C22 STI   202       8.153  86.973  68.653  1.00 34.79     0.256 C 
HETATM   10  O29 STI   202       7.898  86.539  67.547  1.00 40.42    -0.267 OA
HETATM   11  H21 STI   202       8.009  88.450  70.044  1.00  0.00     0.169 HD
BRANCH   9  12
HETATM   12  C23 STI   202       8.716  85.996  69.633  1.00 39.43     0.032 A 
HETATM   13  C25 STI   202       7.928  84.851  70.088  1.00 41.52     0.017 A 
HETATM   14  C26 STI   202       8.486  83.934  71.049  1.00 42.92     0.010 A 
HETATM   15  C27 STI   202       9.831  84.158  71.554  1.00 41.50    -0.033 A 
HETATM   16  C28 STI   202      10.591  85.295  71.082  1.00 41.95     0.010 A 
HETATM   17  C29 STI   202      10.051  86.199  70.142  1.00 42.07     0.017 A 
BRANCH  15  18
HETATM   18  C46 STI   202      10.485  83.240  72.591  1.00 42.63     0.273 C 
BRANCH  18  19
HETATM   19  N48 STI   202      11.820  82.656  72.262  1.00 46.81    -0.064 N 
HETATM   20  C49 STI   202      11.718  81.170  71.938  1.00 44.56     0.263 C 
HETATM   21  C50 STI   202      13.114  80.570  71.580  1.00 46.99     0.262 C 
HETATM   22  N51 STI   202      14.074  80.807  72.736  1.00 45.71    -0.072 N 
HETATM   23  C52 STI   202      14.186  82.289  73.059  1.00 42.59     0.262 C 
HETATM   24  C54 STI   202      15.371  80.182  72.425  1.00 47.72     0.269 C 
HETATM   25  H51 STI   202      13.697  80.342  73.550  1.00  0.00     0.279 HD
HETATM   26  C53 STI   202      12.791  82.882  73.386  1.00 41.12     0.263 C 
HETATM   27  H48 STI   202      12.174  83.130  71.444  1.00  0.00     0.280 HD
ENDBRANCH  18  19
ENDBRANCH  15  18
ENDBRANCH   9  12
ENDBRANCH   3   8
BRANCH   1  28
HETATM   28  N13 STI   202       9.306  92.246  66.313  1.00 45.65    -0.188 N 
HETATM   29  C9  STI   202      10.306  91.741  65.477  1.00 48.27     0.727 A 
HETATM   30  N8  STI   202      11.238  92.613  65.002  1.00 42.11    -0.062 NA
HETATM   31  N10 STI   202      10.371  90.404  65.121  1.00 45.18    -0.075 NA
HETATM   32  C7  STI   202      12.261  92.209  64.167  1.00 48.61     0.089 A 
HETATM   33  C12 STI   202      12.356  90.827  63.778  1.00 45.68     0.053 A 
HETATM   34  C11 STI   202      11.373  89.938  64.287  1.00 47.75     0.139 A 
HETATM   35  H13 STI   202       9.312  93.230  66.539  1.00  0.00     0.184 HD
BRANCH  32  36
HETATM   36  C5  STI   202      13.225  93.264  63.705  1.00 49.43     0.011 A 
HETATM   37  C4  STI   202      12.925  94.660  63.971  1.00 47.99     0.130 A 
HETATM   38  N3  STI   202      13.802  95.653  63.548  1.00 51.14    -0.272 NA
HETATM   39  C2  STI   202      14.989  95.372  62.863  1.00 52.94     0.116 A 
HETATM   40  C1  STI   202      15.349  94.014  62.565  1.00 54.02     0.020 A 
HETATM   41  C6  STI   202      14.459  92.958  62.990  1.00 52.26     0.017 A 
ENDBRANCH  32  36
ENDBRANCH   1  28
TORSDOF 6
ENDMDL
