MODEL 1
REMARK VINA RESULT:     -10.0      0.000      0.000
REMARK  6 active torsions:
REMARK  status: ('A' for Active; 'I' for Inactive)
REMARK    1  A    between atoms: C5_5  and  C7_7 
REMARK       I    between atoms: C9_9  and  N13_13 
REMARK    2  A    between atoms: C14_14  and  N13_13 
REMARK    3  A    between atoms: C16_16  and  N21_21 
REMARK       I    between atoms: C22_22  and  N21_21 
REMARK    4  A    between atoms: C22_22  and  C23_23 
REMARK    5  A    between atoms: C27_26  and  C46_30 
REMARK    6  A    between atoms: C46_30  and  N48_31 
ROOT
HETATM    1  C14 STI   202      16.139 101.261  45.682  1.00 42.05     0.057 A 
HETATM    2  C15 STI   202      15.618 101.105  47.004  1.00 40.05     0.060 A 
HETATM    3  C16 STI   202      16.430 101.424  48.179  1.00 38.18     0.037 A 
HETATM    4  C17 STI   202      17.754 101.900  47.974  1.00 38.14     0.030 A 
HETATM    5  C18 STI   202      18.293 102.063  46.647  1.00 41.64     0.011 A 
HETATM    6  C19 STI   202      17.508 101.749  45.485  1.00 40.08    -0.035 A 
HETATM    7  C20 STI   202      18.159 101.944  44.095  1.00 40.72     0.050 C 
ENDROOT
BRANCH   3   8
HETATM    8  N21 STI   202      15.977 101.287  49.542  1.00 36.88    -0.323 N 
HETATM    9  C22 STI   202      15.930 100.149  50.324  1.00 34.79     0.256 C 
HETATM   10  O29 STI   202      16.063  99.016  49.904  1.00 40.42    -0.267 OA
HETATM   11  H21 STI   202      15.651 102.135  49.983  1.00  0.00     0.169 HD
BRANCH   9  12
HETATM   12  C23 STI   202      15.685 100.286  51.791  1.00 39.43     0.032 A 
HETATM   13  C25 STI   202      16.548 101.124  52.622  1.00 41.52     0.017 A 
HETATM   14  C26 STI   202      16.302 101.223  54.038  1.00 42.92     0.010 A 
HETATM   15  C27 STI   202      15.194 100.489  54.625  1.00 41.50    -0.033 A 
HETATM   16  C28 STI   202      14.350  99.671  53.778  1.00 41.95     0.010 A 
HETATM   17  C29 STI   202      14.585  99.567  52.391  1.00 42.07     0.017 A 
BRANCH  15  18
HETATM   18  C46 STI   202      14.880 100.527  56.124  1.00 42.63     0.273 C 
BRANCH  18  19
HETATM   19  N48 STI   202      13.631  99.856  56.592  1.00 46.81    -0.064 N 
HETATM   20  C49 STI   202      12.435 100.800  56.542  1.00 44.56     0.263 C 
HETATM   21  C50 STI   202      11.130 100.088  57.018  1.00 46.99     0.262 C 
HETATM   22  N51 STI   202      11.335  99.550  58.427  1.00 45.71    -0.072 N 
HETATM   23  C52 STI   202      12.524  98.603  58.482  1.00 42.59     0.262 C 
HETATM   24  C54 STI   202      10.083  98.938  58.900  1.00 47.72     0.269 C 
HETATM   25  H51 STI   202      11.540 100.335  59.029  1.00  0.00     0.279 HD
HETATM   26  C53 STI   202      13.809  99.310  57.981  1.00 41.12     0.263 C 
HETATM   27  H48 STI   202      13.443  99.081  55.974  1.00  0.00     0.280 HD
ENDBRANCH  18  19
ENDBRANCH  15  18
ENDBRANCH   9  12
ENDBRANCH   3   8
BRANCH   1  28
HETATM   28  N13 STI   202      15.319 100.931  44.590  1.00 45.65    -0.188 N 
HETATM   29  C9  STI   202      15.339  99.669  43.989  1.00 48.27     0.727 A 
HETATM   30  N8  STI   202      14.496  99.450  42.943  1.00 42.11    -0.062 NA
HETATM   31  N10 STI   202      16.174  98.653  44.425  1.00 45.18    -0.075 NA
HETATM   32  C7  STI   202      14.442  98.234  42.288  1.00 48.61     0.089 A 
HETATM   33  C12 STI   202      15.296  97.159  42.717  1.00 45.68     0.053 A 
HETATM   34  C11 STI   202      16.165  97.413  43.810  1.00 47.75     0.139 A 
HETATM   35  H13 STI   202      14.690 101.632  44.226  1.00  0.00     0.184 HD
BRANCH  32  36
HETATM   36  C5  STI   202      13.469  98.113  41.151  1.00 49.43     0.011 A 
HETATM   37  C4  STI   202      12.049  98.260  41.416  1.00 47.99     0.130 A 
HETATM   38  N3  STI   202      11.131  98.147  40.377  1.00 51.14    -0.272 NA
HETATM   39  C2  STI   202      11.512  97.893  39.056  1.00 52.94     0.116 A 
HETATM   40  C1  STI   202      12.900  97.736  38.720  1.00 54.02     0.020 A 
HETATM   41  C6  STI   202      13.879  97.847  39.776  1.00 52.26     0.017 A 
ENDBRANCH  32  36
ENDBRANCH   1  28
TORSDOF 6
ENDMDL
MODEL 2
REMARK VINA RESULT:     -10.0      2.264      2.997
REMARK  6 active torsions:
REMARK  status: ('A' for Active; 'I' for Inactive)
REMARK    1  A    between atoms: C5_5  and  C7_7 
REMARK       I    between atoms: C9_9  and  N13_13 
REMARK    2  A    between atoms: C14_14  and  N13_13 
REMARK    3  A    between atoms: C16_16  and  N21_21 
REMARK       I    between atoms: C22_22  and  N21_21 
REMARK    4  A    between atoms: C22_22  and  C23_23 
REMARK    5  A    between atoms: C27_26  and  C46_30 
REMARK    6  A    between atoms: C46_30  and  N48_31 
ROOT
HETATM    1  C14 STI   202      16.171 101.538  45.723  1.00 42.05     0.057 A 
HETATM    2  C15 STI   202      15.616 101.300  47.020  1.00 40.05     0.060 A 
HETATM    3  C16 STI   202      16.419 101.483  48.230  1.00 38.18     0.037 A 
HETATM    4  C17 STI   202      17.768 101.908  48.086  1.00 38.14     0.030 A 
HETATM    5  C18 STI   202      18.341 102.152  46.785  1.00 41.64     0.011 A 
HETATM    6  C19 STI   202      17.565 101.973  45.590  1.00 40.08    -0.035 A 
HETATM    7  C20 STI   202      18.252 102.249  44.231  1.00 40.72     0.050 C 
ENDROOT
BRANCH   3   8
HETATM    8  N21 STI   202      15.933 101.258  49.570  1.00 36.88    -0.323 N 
HETATM    9  C22 STI   202      15.944 100.088  50.305  1.00 34.79     0.256 C 
HETATM   10  O29 STI   202      16.174  98.985  49.847  1.00 40.42    -0.267 OA
HETATM   11  H21 STI   202      15.531 102.061  50.031  1.00  0.00     0.169 HD
BRANCH   9  12
HETATM   12  C23 STI   202      15.641 100.146  51.766  1.00 39.43     0.032 A 
HETATM   13  C25 STI   202      14.439  99.514  52.310  1.00 41.52     0.017 A 
HETATM   14  C26 STI   202      14.160  99.601  53.720  1.00 42.92     0.010 A 
HETATM   15  C27 STI   202      15.079 100.316  54.589  1.00 41.50    -0.033 A 
HETATM   16  C28 STI   202      16.265 100.927  54.026  1.00 41.95     0.010 A 
HETATM   17  C29 STI   202      16.545 100.848  52.646  1.00 42.07     0.017 A 
BRANCH  15  18
HETATM   18  C46 STI   202      14.841 100.470  56.095  1.00 42.63     0.273 C 
BRANCH  18  19
HETATM   19  N48 STI   202      13.579  99.908  56.661  1.00 46.81    -0.064 N 
HETATM   20  C49 STI   202      12.480 100.962  56.737  1.00 44.56     0.263 C 
HETATM   21  C50 STI   202      11.159 100.364  57.316  1.00 46.99     0.262 C 
HETATM   22  N51 STI   202      11.435  99.773  58.690  1.00 45.71    -0.072 N 
HETATM   23  C52 STI   202      12.526  98.716  58.621  1.00 42.59     0.262 C 
HETATM   24  C54 STI   202      10.176  99.269  59.263  1.00 47.72     0.269 C 
HETATM   25  H51 STI   202      11.767 100.519  59.285  1.00  0.00     0.279 HD
HETATM   26  C53 STI   202      13.825  99.312  58.019  1.00 41.12     0.263 C 
HETATM   27  H48 STI   202      13.263  99.171  56.049  1.00  0.00     0.280 HD
ENDBRANCH  18  19
ENDBRANCH  15  18
ENDBRANCH   9  12
ENDBRANCH   3   8
BRANCH   1  28
HETATM   28  N13 STI   202      15.357 101.339  44.595  1.00 45.65    -0.188 N 
HETATM   29  C9  STI   202      14.436 102.294  44.156  1.00 48.27     0.727 A 
HETATM   30  N8  STI   202      13.703 102.005  43.045  1.00 42.11    -0.062 NA
HETATM   31  N10 STI   202      14.255 103.504  44.805  1.00 45.18    -0.075 NA
HETATM   32  C7  STI   202      12.771 102.888  42.534  1.00 48.61     0.089 A 
HETATM   33  C12 STI   202      12.560 104.153  43.184  1.00 45.68     0.053 A 
HETATM   34  C11 STI   202      13.336 104.429  44.340  1.00 47.75     0.139 A 
HETATM   35  H13 STI   202      15.442 100.473  44.082  1.00  0.00     0.184 HD
BRANCH  32  36
HETATM   36  C5  STI   202      12.028 102.458  41.301  1.00 49.43     0.011 A 
HETATM   37  C4  STI   202      12.461 101.267  40.593  1.00 47.99     0.130 A 
HETATM   38  N3  STI   202      11.789 100.855  39.447  1.00 51.14    -0.272 NA
HETATM   39  C2  STI   202      10.689 101.544  38.927  1.00 52.94     0.116 A 
HETATM   40  C1  STI   202      10.205 102.731  39.575  1.00 54.02     0.020 A 
HETATM   41  C6  STI   202      10.882 103.187  40.768  1.00 52.26     0.017 A 
ENDBRANCH  32  36
ENDBRANCH   1  28
TORSDOF 6
ENDMDL
MODEL 3
REMARK VINA RESULT:      -9.6      2.263      2.507
REMARK  6 active torsions:
REMARK  status: ('A' for Active; 'I' for Inactive)
REMARK    1  A    between atoms: C5_5  and  C7_7 
REMARK       I    between atoms: C9_9  and  N13_13 
REMARK    2  A    between atoms: C14_14  and  N13_13 
REMARK    3  A    between atoms: C16_16  and  N21_21 
REMARK       I    between atoms: C22_22  and  N21_21 
REMARK    4  A    between atoms: C22_22  and  C23_23 
REMARK    5  A    between atoms: C27_26  and  C46_30 
REMARK    6  A    between atoms: C46_30  and  N48_31 
ROOT
HETATM    1  C14 STI   202      15.285 100.915  45.339  1.00 42.05     0.057 A 
HETATM    2  C15 STI   202      15.248 100.447  46.690  1.00 40.05     0.060 A 
HETATM    3  C16 STI   202      15.359 101.377  47.815  1.00 38.18     0.037 A 
HETATM    4  C17 STI   202      15.499 102.764  47.532  1.00 38.14     0.030 A 
HETATM    5  C18 STI   202      15.536 103.250  46.174  1.00 41.64     0.011 A 
HETATM    6  C19 STI   202      15.433 102.347  45.061  1.00 40.08    -0.035 A 
HETATM    7  C20 STI   202      15.487 102.944  43.635  1.00 40.72     0.050 C 
ENDROOT
BRANCH   3   8
HETATM    8  N21 STI   202      15.337 100.981  49.202  1.00 36.88    -0.323 N 
HETATM    9  C22 STI   202      16.338 101.099  50.147  1.00 34.79     0.256 C 
HETATM   10  O29 STI   202      17.498 101.362  49.897  1.00 40.42    -0.267 OA
HETATM   11  H21 STI   202      14.477 100.563  49.525  1.00  0.00     0.169 HD
BRANCH   9  12
HETATM   12  C23 STI   202      16.006 100.877  51.586  1.00 39.43     0.032 A 
HETATM   13  C25 STI   202      15.080  99.819  51.990  1.00 41.52     0.017 A 
HETATM   14  C26 STI   202      14.762  99.639  53.383  1.00 42.92     0.010 A 
HETATM   15  C27 STI   202      15.368 100.511  54.374  1.00 41.50    -0.033 A 
HETATM   16  C28 STI   202      16.287 101.546  53.949  1.00 41.95     0.010 A 
HETATM   17  C29 STI   202      16.603 101.731  52.586  1.00 42.07     0.017 A 
BRANCH  15  18
HETATM   18  C46 STI   202      15.065 100.396  55.872  1.00 42.63     0.273 C 
BRANCH  18  19
HETATM   19  N48 STI   202      13.795  99.721  56.275  1.00 46.81    -0.064 N 
HETATM   20  C49 STI   202      12.579 100.593  55.983  1.00 44.56     0.263 C 
HETATM   21  C50 STI   202      11.255  99.877  56.393  1.00 46.99     0.262 C 
HETATM   22  N51 STI   202      11.316  99.513  57.868  1.00 45.71    -0.072 N 
HETATM   23  C52 STI   202      12.523  98.637  58.166  1.00 42.59     0.262 C 
HETATM   24  C54 STI   202      10.040  98.897  58.270  1.00 47.72     0.269 C 
HETATM   25  H51 STI   202      11.421 100.370  58.393  1.00  0.00     0.279 HD
HETATM   26  C53 STI   202      13.831  99.346  57.729  1.00 41.12     0.263 C 
HETATM   27  H48 STI   202      13.707  98.873  55.735  1.00  0.00     0.280 HD
ENDBRANCH  18  19
ENDBRANCH  15  18
ENDBRANCH   9  12
ENDBRANCH   3   8
BRANCH   1  28
HETATM   28  N13 STI   202      15.183  99.977  44.298  1.00 45.65    -0.188 N 
HETATM   29  C9  STI   202      16.304  99.439  43.659  1.00 48.27     0.727 A 
HETATM   30  N8  STI   202      16.095  98.530  42.667  1.00 42.11    -0.062 NA
HETATM   31  N10 STI   202      17.597  99.797  44.004  1.00 45.18    -0.075 NA
HETATM   32  C7  STI   202      17.140  97.941  41.982  1.00 48.61     0.089 A 
HETATM   33  C12 STI   202      18.495  98.290  42.317  1.00 45.68     0.053 A 
HETATM   34  C11 STI   202      18.686  99.241  43.353  1.00 47.75     0.139 A 
HETATM   35  H13 STI   202      14.265  99.680  44.000  1.00  0.00     0.184 HD
BRANCH  32  36
HETATM   36  C5  STI   202      16.783  96.949  40.912  1.00 49.43     0.011 A 
HETATM   37  C4  STI   202      16.135  95.706  41.288  1.00 47.99     0.130 A 
HETATM   38  N3  STI   202      15.799  94.773  40.313  1.00 51.14    -0.272 NA
HETATM   39  C2  STI   202      16.061  94.972  38.953  1.00 52.94     0.116 A 
HETATM   40  C1  STI   202      16.700  96.179  38.508  1.00 54.02     0.020 A 
HETATM   41  C6  STI   202      17.062  97.169  39.497  1.00 52.26     0.017 A 
ENDBRANCH  32  36
ENDBRANCH   1  28
TORSDOF 6
ENDMDL
MODEL 4
REMARK VINA RESULT:      -8.3     17.242     22.629
REMARK  6 active torsions:
REMARK  status: ('A' for Active; 'I' for Inactive)
REMARK    1  A    between atoms: C5_5  and  C7_7 
REMARK       I    between atoms: C9_9  and  N13_13 
REMARK    2  A    between atoms: C14_14  and  N13_13 
REMARK    3  A    between atoms: C16_16  and  N21_21 
REMARK       I    between atoms: C22_22  and  N21_21 
REMARK    4  A    between atoms: C22_22  and  C23_23 
REMARK    5  A    between atoms: C27_26  and  C46_30 
REMARK    6  A    between atoms: C46_30  and  N48_31 
ROOT
HETATM    1  C14 STI   202      10.567  91.380  64.625  1.00 42.05     0.057 A 
HETATM    2  C15 STI   202      10.318  90.388  65.625  1.00 40.05     0.060 A 
HETATM    3  C16 STI   202      11.229  90.213  66.758  1.00 38.18     0.037 A 
HETATM    4  C17 STI   202      12.369  91.059  66.844  1.00 38.14     0.030 A 
HETATM    5  C18 STI   202      12.632  92.063  65.843  1.00 41.64     0.011 A 
HETATM    6  C19 STI   202      11.748  92.243  64.725  1.00 40.08    -0.035 A 
HETATM    7  C20 STI   202      12.102  93.337  63.689  1.00 40.72     0.050 C 
ENDROOT
BRANCH   3   8
HETATM    8  N21 STI   202      11.049  89.233  67.802  1.00 36.88    -0.323 N 
HETATM    9  C22 STI   202      10.020  89.130  68.718  1.00 34.79     0.256 C 
HETATM   10  O29 STI   202       9.196  89.998  68.934  1.00 40.42    -0.267 OA
HETATM   11  H21 STI   202      11.769  88.530  67.871  1.00  0.00     0.169 HD
BRANCH   9  12
HETATM   12  C23 STI   202       9.892  87.882  69.528  1.00 39.43     0.032 A 
HETATM   13  C25 STI   202       9.470  86.625  68.911  1.00 41.52     0.017 A 
HETATM   14  C26 STI   202       9.336  85.440  69.718  1.00 42.92     0.010 A 
HETATM   15  C27 STI   202       9.624  85.507  71.141  1.00 41.50    -0.033 A 
HETATM   16  C28 STI   202      10.046  86.762  71.726  1.00 41.95     0.010 A 
HETATM   17  C29 STI   202      10.179  87.928  70.943  1.00 42.07     0.017 A 
BRANCH  15  18
HETATM   18  C46 STI   202       9.484  84.296  72.069  1.00 42.63     0.273 C 
BRANCH  18  19
HETATM   19  N48 STI   202      10.282  83.075  71.747  1.00 46.81    -0.064 N 
HETATM   20  C49 STI   202       9.592  81.808  72.238  1.00 44.56     0.263 C 
HETATM   21  C50 STI   202      10.424  80.536  71.884  1.00 46.99     0.262 C 
HETATM   22  N51 STI   202      11.815  80.661  72.487  1.00 45.71    -0.072 N 
HETATM   23  C52 STI   202      12.512  81.920  71.996  1.00 42.59     0.262 C 
HETATM   24  C54 STI   202      12.577  79.431  72.210  1.00 47.72     0.269 C 
HETATM   25  H51 STI   202      11.711  80.738  73.489  1.00  0.00     0.279 HD
HETATM   26  C53 STI   202      11.665  83.176  72.326  1.00 41.12     0.263 C 
HETATM   27  H48 STI   202      10.368  83.015  70.743  1.00  0.00     0.280 HD
ENDBRANCH  18  19
ENDBRANCH  15  18
ENDBRANCH   9  12
ENDBRANCH   3   8
BRANCH   1  28
HETATM   28  N13 STI   202       9.665  91.499  63.555  1.00 45.65    -0.188 N 
HETATM   29  C9  STI   202       8.395  92.064  63.702  1.00 48.27     0.727 A 
HETATM   30  N8  STI   202       7.601  92.140  62.598  1.00 42.11    -0.062 NA
HETATM   31  N10 STI   202       7.933  92.544  64.916  1.00 45.18    -0.075 NA
HETATM   32  C7  STI   202       6.333  92.686  62.644  1.00 48.61     0.089 A 
HETATM   33  C12 STI   202       5.825  93.194  63.890  1.00 45.68     0.053 A 
HETATM   34  C11 STI   202       6.671  93.103  65.026  1.00 47.75     0.139 A 
HETATM   35  H13 STI   202       9.945  91.163  62.644  1.00  0.00     0.184 HD
BRANCH  32  36
HETATM   36  C5  STI   202       5.556  92.718  61.360  1.00 49.43     0.011 A 
HETATM   37  C4  STI   202       5.239  94.000  60.756  1.00 47.99     0.130 A 
HETATM   38  N3  STI   202       4.517  94.052  59.569  1.00 51.14    -0.272 NA
HETATM   39  C2  STI   202       4.066  92.904  58.908  1.00 52.94     0.116 A 
HETATM   40  C1  STI   202       4.342  91.602  59.447  1.00 54.02     0.020 A 
HETATM   41  C6  STI   202       5.091  91.514  60.680  1.00 52.26     0.017 A 
ENDBRANCH  32  36
ENDBRANCH   1  28
TORSDOF 6
ENDMDL
MODEL 5
REMARK VINA RESULT:      -8.2     16.934     23.542
REMARK  6 active torsions:
REMARK  status: ('A' for Active; 'I' for Inactive)
REMARK    1  A    between atoms: C5_5  and  C7_7 
REMARK       I    between atoms: C9_9  and  N13_13 
REMARK    2  A    between atoms: C14_14  and  N13_13 
REMARK    3  A    between atoms: C16_16  and  N21_21 
REMARK       I    between atoms: C22_22  and  N21_21 
REMARK    4  A    between atoms: C22_22  and  C23_23 
REMARK    5  A    between atoms: C27_26  and  C46_30 
REMARK    6  A    between atoms: C46_30  and  N48_31 
ROOT
HETATM    1  C14 STI   202       8.637  91.307  65.788  1.00 42.05     0.057 A 
HETATM    2  C15 STI   202       8.905  90.269  66.734  1.00 40.05     0.060 A 
HETATM    3  C16 STI   202       7.888  89.270  67.068  1.00 38.18     0.037 A 
HETATM    4  C17 STI   202       6.623  89.354  66.424  1.00 38.14     0.030 A 
HETATM    5  C18 STI   202       6.339  90.395  65.467  1.00 41.64     0.011 A 
HETATM    6  C19 STI   202       7.326  91.384  65.133  1.00 40.08    -0.035 A 
HETATM    7  C20 STI   202       6.944  92.472  64.102  1.00 40.72     0.050 C 
ENDROOT
BRANCH   3   8
HETATM    8  N21 STI   202       8.081  88.199  68.015  1.00 36.88    -0.323 N 
HETATM    9  C22 STI   202       8.500  86.904  67.777  1.00 34.79     0.256 C 
HETATM   10  O29 STI   202       8.565  86.389  66.677  1.00 40.42    -0.267 OA
HETATM   11  H21 STI   202       7.884  88.425  68.979  1.00  0.00     0.169 HD
BRANCH   9  12
HETATM   12  C23 STI   202       8.894  86.044  68.932  1.00 39.43     0.032 A 
HETATM   13  C25 STI   202       8.107  84.865  69.294  1.00 41.52     0.017 A 
HETATM   14  C26 STI   202       8.497  84.064  70.426  1.00 42.92     0.010 A 
HETATM   15  C27 STI   202       9.672  84.435  71.195  1.00 41.50    -0.033 A 
HETATM   16  C28 STI   202      10.437  85.603  70.811  1.00 41.95     0.010 A 
HETATM   17  C29 STI   202      10.062  86.395  69.705  1.00 42.07     0.017 A 
BRANCH  15  18
HETATM   18  C46 STI   202      10.139  83.646  72.422  1.00 42.63     0.273 C 
BRANCH  18  19
HETATM   19  N48 STI   202      11.437  82.914  72.328  1.00 46.81    -0.064 N 
HETATM   20  C49 STI   202      11.224  81.414  72.158  1.00 44.56     0.263 C 
HETATM   21  C50 STI   202      12.584  80.657  72.044  1.00 46.99     0.262 C 
HETATM   22  N51 STI   202      13.424  80.945  73.279  1.00 45.71    -0.072 N 
HETATM   23  C52 STI   202      13.646  82.440  73.451  1.00 42.59     0.262 C 
HETATM   24  C54 STI   202      14.679  80.178  73.202  1.00 47.72     0.269 C 
HETATM   25  H51 STI   202      12.912  80.616  74.085  1.00  0.00     0.279 HD
HETATM   26  C53 STI   202      12.290  83.187  73.534  1.00 41.12     0.263 C 
HETATM   27  H48 STI   202      11.928  83.254  71.514  1.00  0.00     0.280 HD
ENDBRANCH  18  19
ENDBRANCH  15  18
ENDBRANCH   9  12
ENDBRANCH   3   8
BRANCH   1  28
HETATM   28  N13 STI   202       9.646  92.244  65.511  1.00 45.65    -0.188 N 
HETATM   29  C9  STI   202      10.825  91.903  64.842  1.00 48.27     0.727 A 
HETATM   30  N8  STI   202      11.735  92.890  64.615  1.00 42.11    -0.062 NA
HETATM   31  N10 STI   202      11.084  90.614  64.406  1.00 45.18    -0.075 NA
HETATM   32  C7  STI   202      12.927  92.650  63.958  1.00 48.61     0.089 A 
HETATM   33  C12 STI   202      13.225  91.322  63.493  1.00 45.68     0.053 A 
HETATM   34  C11 STI   202      12.260  90.311  63.742  1.00 47.75     0.139 A 
HETATM   35  H13 STI   202       9.515  93.201  65.807  1.00  0.00     0.184 HD
BRANCH  32  36
HETATM   36  C5  STI   202      13.848  93.820  63.765  1.00 49.43     0.011 A 
HETATM   37  C4  STI   202      13.313  95.166  63.867  1.00 47.99     0.130 A 
HETATM   38  N3  STI   202      14.149  96.263  63.688  1.00 51.14    -0.272 NA
HETATM   39  C2  STI   202      15.513  96.136  63.405  1.00 52.94     0.116 A 
HETATM   40  C1  STI   202      16.111  94.835  63.288  1.00 54.02     0.020 A 
HETATM   41  C6  STI   202      15.269  93.674  63.470  1.00 52.26     0.017 A 
ENDBRANCH  32  36
ENDBRANCH   1  28
TORSDOF 6
ENDMDL
MODEL 6
REMARK VINA RESULT:      -8.2     18.109     23.092
REMARK  6 active torsions:
REMARK  status: ('A' for Active; 'I' for Inactive)
REMARK    1  A    between atoms: C5_5  and  C7_7 
REMARK       I    between atoms: C9_9  and  N13_13 
REMARK    2  A    between atoms: C14_14  and  N13_13 
REMARK    3  A    between atoms: C16_16  and  N21_21 
REMARK       I    between atoms: C22_22  and  N21_21 
REMARK    4  A    between atoms: C22_22  and  C23_23 
REMARK    5  A    between atoms: C27_26  and  C46_30 
REMARK    6  A    between atoms: C46_30  and  N48_31 
ROOT
HETATM    1  C14 STI   202       9.037  89.934  64.239  1.00 42.05     0.057 A 
HETATM    2  C15 STI   202       9.230  89.209  65.456  1.00 40.05     0.060 A 
HETATM    3  C16 STI   202       9.333  89.904  66.741  1.00 38.18     0.037 A 
HETATM    4  C17 STI   202       9.231  91.322  66.750  1.00 38.14     0.030 A 
HETATM    5  C18 STI   202       9.036  92.066  65.530  1.00 41.64     0.011 A 
HETATM    6  C19 STI   202       8.936  91.397  64.263  1.00 40.08    -0.035 A 
HETATM    7  C20 STI   202       8.734  92.265  62.998  1.00 40.72     0.050 C 
ENDROOT
BRANCH   3   8
HETATM    8  N21 STI   202       9.533  89.244  68.008  1.00 36.88    -0.323 N 
HETATM    9  C22 STI   202       8.594  88.914  68.966  1.00 34.79     0.256 C 
HETATM   10  O29 STI   202       7.453  89.334  68.989  1.00 40.42    -0.267 OA
HETATM   11  H21 STI   202      10.486  88.989  68.223  1.00  0.00     0.169 HD
BRANCH   9  12
HETATM   12  C23 STI   202       8.980  87.992  70.075  1.00 39.43     0.032 A 
HETATM   13  C25 STI   202      10.081  87.043  69.913  1.00 41.52     0.017 A 
HETATM   14  C26 STI   202      10.421  86.150  70.991  1.00 42.92     0.010 A 
HETATM   15  C27 STI   202       9.665  86.204  72.230  1.00 41.50    -0.033 A 
HETATM   16  C28 STI   202       8.584  87.156  72.367  1.00 41.95     0.010 A 
HETATM   17  C29 STI   202       8.243  88.034  71.316  1.00 42.07     0.017 A 
BRANCH  15  18
HETATM   18  C46 STI   202       9.952  85.273  73.414  1.00 42.63     0.273 C 
BRANCH  18  19
HETATM   19  N48 STI   202      10.971  84.198  73.223  1.00 46.81    -0.064 N 
HETATM   20  C49 STI   202      10.338  82.909  72.712  1.00 44.56     0.263 C 
HETATM   21  C50 STI   202      11.410  81.795  72.501  1.00 46.99     0.262 C 
HETATM   22  N51 STI   202      12.148  81.553  73.810  1.00 45.71    -0.072 N 
HETATM   23  C52 STI   202      12.788  82.834  74.322  1.00 42.59     0.262 C 
HETATM   24  C54 STI   202      13.113  80.456  73.627  1.00 47.72     0.269 C 
HETATM   25  H51 STI   202      11.469  81.253  74.495  1.00  0.00     0.279 HD
HETATM   26  C53 STI   202      11.719  83.943  74.501  1.00 41.12     0.263 C 
HETATM   27  H48 STI   202      11.634  84.516  72.531  1.00  0.00     0.280 HD
ENDBRANCH  18  19
ENDBRANCH  15  18
ENDBRANCH   9  12
ENDBRANCH   3   8
BRANCH   1  28
HETATM   28  N13 STI   202       8.953  89.217  63.034  1.00 45.65    -0.188 N 
HETATM   29  C9  STI   202       7.769  88.616  62.597  1.00 48.27     0.727 A 
HETATM   30  N8  STI   202       7.794  87.952  61.409  1.00 42.11    -0.062 NA
HETATM   31  N10 STI   202       6.592  88.681  63.325  1.00 45.18    -0.075 NA
HETATM   32  C7  STI   202       6.672  87.331  60.893  1.00 48.61     0.089 A 
HETATM   33  C12 STI   202       5.435  87.381  61.625  1.00 45.68     0.053 A 
HETATM   34  C11 STI   202       5.435  88.078  62.861  1.00 47.75     0.139 A 
HETATM   35  H13 STI   202       9.781  89.133  62.461  1.00  0.00     0.184 HD
BRANCH  32  36
HETATM   36  C5  STI   202       6.824  86.634  59.571  1.00 49.43     0.011 A 
HETATM   37  C4  STI   202       6.700  87.405  58.348  1.00 47.99     0.130 A 
HETATM   38  N3  STI   202       6.833  86.778  57.113  1.00 51.14    -0.272 NA
HETATM   39  C2  STI   202       7.085  85.408  56.984  1.00 52.94     0.116 A 
HETATM   40  C1  STI   202       7.219  84.583  58.152  1.00 54.02     0.020 A 
HETATM   41  C6  STI   202       7.086  85.204  59.451  1.00 52.26     0.017 A 
ENDBRANCH  32  36
ENDBRANCH   1  28
TORSDOF 6
ENDMDL
MODEL 7
REMARK VINA RESULT:      -8.2     17.895     22.441
REMARK  6 active torsions:
REMARK  status: ('A' for Active; 'I' for Inactive)
REMARK    1  A    between atoms: C5_5  and  C7_7 
REMARK       I    between atoms: C9_9  and  N13_13 
REMARK    2  A    between atoms: C14_14  and  N13_13 
REMARK    3  A    between atoms: C16_16  and  N21_21 
REMARK       I    between atoms: C22_22  and  N21_21 
REMARK    4  A    between atoms: C22_22  and  C23_23 
REMARK    5  A    between atoms: C27_26  and  C46_30 
REMARK    6  A    between atoms: C46_30  and  N48_31 
ROOT
HETATM    1  C14 STI   202       8.508  90.907  63.660  1.00 42.05     0.057 A 
HETATM    2  C15 STI   202       8.844  90.419  64.961  1.00 40.05     0.060 A 
HETATM    3  C16 STI   202       8.870  91.314  66.120  1.00 38.18     0.037 A 
HETATM    4  C17 STI   202       8.550  92.685  65.920  1.00 38.14     0.030 A 
HETATM    5  C18 STI   202       8.209  93.191  64.613  1.00 41.64     0.011 A 
HETATM    6  C19 STI   202       8.182  92.324  63.468  1.00 40.08    -0.035 A 
HETATM    7  C20 STI   202       7.814  92.943  62.098  1.00 40.72     0.050 C 
ENDROOT
BRANCH   3   8
HETATM    8  N21 STI   202       9.204  90.898  67.460  1.00 36.88    -0.323 N 
HETATM    9  C22 STI   202       8.354  90.537  68.488  1.00 34.79     0.256 C 
HETATM   10  O29 STI   202       7.153  90.727  68.489  1.00 40.42    -0.267 OA
HETATM   11  H21 STI   202      10.190  90.867  67.677  1.00  0.00     0.169 HD
BRANCH   9  12
HETATM   12  C23 STI   202       8.920  89.879  69.702  1.00 39.43     0.032 A 
HETATM   13  C25 STI   202       9.724  88.662  69.591  1.00 41.52     0.017 A 
HETATM   14  C26 STI   202      10.243  88.035  70.780  1.00 42.92     0.010 A 
HETATM   15  C27 STI   202       9.963  88.624  72.079  1.00 41.50    -0.033 A 
HETATM   16  C28 STI   202       9.170  89.832  72.161  1.00 41.95     0.010 A 
HETATM   17  C29 STI   202       8.657  90.451  71.001  1.00 42.07     0.017 A 
BRANCH  15  18
HETATM   18  C46 STI   202      10.461  88.006  73.390  1.00 42.63     0.273 C 
BRANCH  18  19
HETATM   19  N48 STI   202       9.613  86.958  74.033  1.00 46.81    -0.064 N 
HETATM   20  C49 STI   202       9.620  87.087  75.552  1.00 44.56     0.263 C 
HETATM   21  C50 STI   202       8.720  85.999  76.217  1.00 46.99     0.262 C 
HETATM   22  N51 STI   202       9.199  84.620  75.790  1.00 45.71    -0.072 N 
HETATM   23  C52 STI   202       9.189  84.483  74.276  1.00 42.59     0.262 C 
HETATM   24  C54 STI   202       8.392  83.593  76.471  1.00 47.72     0.269 C 
HETATM   25  H51 STI   202      10.154  84.516  76.102  1.00  0.00     0.279 HD
HETATM   26  C53 STI   202      10.062  85.584  73.623  1.00 41.12     0.263 C 
HETATM   27  H48 STI   202       8.664  87.085  73.713  1.00  0.00     0.280 HD
ENDBRANCH  18  19
ENDBRANCH  15  18
ENDBRANCH   9  12
ENDBRANCH   3   8
BRANCH   1  28
HETATM   28  N13 STI   202       8.506  90.006  62.582  1.00 45.65    -0.188 N 
HETATM   29  C9  STI   202       7.417  89.176  62.299  1.00 48.27     0.727 A 
HETATM   30  N8  STI   202       7.514  88.345  61.224  1.00 42.11    -0.062 NA
HETATM   31  N10 STI   202       6.263  89.180  63.064  1.00 45.18    -0.075 NA
HETATM   32  C7  STI   202       6.489  87.492  60.864  1.00 48.61     0.089 A 
HETATM   33  C12 STI   202       5.276  87.473  61.638  1.00 45.68     0.053 A 
HETATM   34  C11 STI   202       5.201  88.347  62.753  1.00 47.75     0.139 A 
HETATM   35  H13 STI   202       9.322  89.956  61.989  1.00  0.00     0.184 HD
BRANCH  32  36
HETATM   36  C5  STI   202       6.712  86.627  59.657  1.00 49.43     0.011 A 
HETATM   37  C4  STI   202       6.568  87.208  58.334  1.00 47.99     0.130 A 
HETATM   38  N3  STI   202       6.767  86.422  57.203  1.00 51.14    -0.272 NA
HETATM   39  C2  STI   202       7.107  85.067  57.274  1.00 52.94     0.116 A 
HETATM   40  C1  STI   202       7.265  84.426  58.549  1.00 54.02     0.020 A 
HETATM   41  C6  STI   202       7.065  85.214  59.744  1.00 52.26     0.017 A 
ENDBRANCH  32  36
ENDBRANCH   1  28
TORSDOF 6
ENDMDL
